data_TMA
_audit_creation_date              2023-02-07
_audit_creation_method            'Materials Studio'
_symmetry_space_group_name_H-M    'P1'
_symmetry_Int_Tables_number       1
_symmetry_cell_setting            triclinic
loop_
_symmetry_equiv_pos_as_xyz
  x,y,z
_cell_length_a                    30.0000
_cell_length_b                    30.0000
_cell_length_c                    30.0000
_cell_angle_alpha                 90.0000
_cell_angle_beta                  90.0000
_cell_angle_gamma                 90.0000
loop_
_atom_site_label
_atom_site_type_symbol
_atom_site_fract_x
_atom_site_fract_y
_atom_site_fract_z
_atom_site_U_iso_or_equiv
_atom_site_adp_type
_atom_site_occupancy
_atom_site_charge
N1	N	0.000000	0.000000	0.000000	0.000000	Uiso	1	0.081720
C2	C	-0.016770	-0.023710	0.041070	0.000000	Uiso	1	-0.215384
C3	C	-0.016770	-0.023710	-0.041070	0.000000	Uiso	1	-0.215384
C4	C	-0.016770	0.047420	0.000000	0.000000	Uiso	1	-0.215384
C5	C	0.050300	0.000000	0.000000	0.000000	Uiso	1	-0.215384
H6	H	-0.005200	-0.007350	0.071540	0.000000	Uiso	1	0.148318
H7	H	-0.053220	-0.024330	0.042130	0.000000	Uiso	1	0.148318
H8	H	-0.005200	-0.058280	0.042130	0.000000	Uiso	1	0.148318
H9	H	-0.005200	-0.007350	-0.071540	0.000000	Uiso	1	0.148318
H10	H	-0.053220	-0.024330	-0.042130	0.000000	Uiso	1	0.148318
H11	H	-0.005200	-0.058280	-0.042130	0.000000	Uiso	1	0.148318
H12	H	-0.005200	0.065630	-0.029410	0.000000	Uiso	1	0.148318
H13	H	-0.053220	0.048650	0.000000	0.000000	Uiso	1	0.148318
H14	H	-0.005200	0.065630	0.029410	0.000000	Uiso	1	0.148318
H15	H	0.063610	0.016980	-0.029410	0.000000	Uiso	1	0.148318
H16	H	0.063610	-0.033960	0.000000	0.000000	Uiso	1	0.148318
H17	H	0.063610	0.016980	0.029410	0.000000	Uiso	1	0.148318
loop_
_geom_bond_atom_site_label_1
_geom_bond_atom_site_label_2
_geom_bond_distance
_geom_bond_site_symmetry_2
_ccdc_geom_bond_type
N1     C2      1.509   .     S
N1     C3      1.509   .     S
N1     C4      1.509   .     S
N1     C5      1.509   .     S
C2     H6      1.094   .     S
C2     H7      1.094   .     S
C2     H8      1.094   .     S
C3     H9      1.094   .     S
C3     H10     1.094   .     S
C3     H11     1.094   .     S
C4     H12     1.094   .     S
C4     H13     1.094   .     S
C4     H14     1.094   .     S
C5     H15     1.094   .     S
C5     H16     1.094   .     S
C5     H17     1.094   .     S
