data_image0
_chemical_formula_structural       H4CH4CHSC2NH2CHCHCHCHCH2CHCHCSH2C5H5CHC2SFeSH3CH5C2NC2SH2Fe2SH3CHSH2CH5CH3SFeSHCH3NHFeCH2CHCH2C3S2H6CH4CH2SCFeHCHC2H2SHC2HCH3CH2CSHFeCSC2H2SHFeC2H3CH3C2H3CFeHSCSH4S2HNFeH3C2H3CHSC2H4CHFeH2C2HC2HSCH2CHFeHSH2SHCHCHSHCH2C3HCHFeCH2CHCH2CHNH2C3HSHC3HC4H4CH3FeCHFeHNHCFeH5CHCHS2C2NH9CSHSHC2H2FeC3H3CHSHCH4CHCH2NFeCHC2HCH7S2HCH2FeHSCSC2H2C2HCHSHFeH3FeNH4C2H2C3HC2H4CS2HC4HCH2CHC2FeCSCH2FeH4CH2SHCSHCHNHSCHCH2C2HC2HCH2CHNHCH5C3H2CH4CSH5C3H5CHCNCH2CH3SH3CSC2H2CH2CH2C2HCHFeHCHSH2S2H2
_chemical_formula_sum              "H288 C168 S48 N12 Fe24"
_cell_length_a       22.2938
_cell_length_b       20.4343
_cell_length_c       20.9405
_cell_angle_alpha    92.0666
_cell_angle_beta     91.7695
_cell_angle_gamma    124.102

_space_group_name_H-M_alt    "P 1"
_space_group_IT_number       1

loop_
  _space_group_symop_operation_xyz
  'x, y, z'

loop_
  _atom_site_type_symbol
  _atom_site_label
  _atom_site_symmetry_multiplicity
  _atom_site_fract_x
  _atom_site_fract_y
  _atom_site_fract_z
  _atom_site_occupancy
  H   H1        1.0  0.29119  0.32252  0.87054  1.0000
  H   H2        1.0  0.35976  0.34890  0.93136  1.0000
  H   H3        1.0  0.44525  0.19151  0.03881  1.0000
  H   H4        1.0  0.56452  0.19640  0.87155  1.0000
  C   C1        1.0  0.59203  0.56284  0.99362  1.0000
  H   H5        1.0  0.19076  0.32220  0.88809  1.0000
  H   H6        1.0  0.21682  0.40121  0.94532  1.0000
  H   H7        1.0  0.44333  0.17387  0.86904  1.0000
  H   H8        1.0  0.19854  0.22821  0.02039  1.0000
  C   C2        1.0  0.47373  0.19169  0.91654  1.0000
  H   H9        1.0  0.32053  0.45070  0.01541  1.0000
  S   S1        1.0  0.29245  0.56753  0.99019  1.0000
  C   C3        1.0  0.35711  0.44617  0.89902  1.0000
  C   C4        1.0  0.50134  0.43893  0.03724  1.0000
  N   N1        1.0  0.26212  0.33363  0.96654  1.0000
  H   H10       1.0  0.39794  0.48714  0.93760  1.0000
  H   H11       1.0  0.24233  0.19507  0.89249  1.0000
  C   C5        1.0  0.23750  0.25094  0.98225  1.0000
  H   H12       1.0  0.56764  0.25532  0.05520  1.0000
  C   C6        1.0  0.16042  0.49691  0.03967  1.0000
  H   H13       1.0  0.56978  0.28621  0.87408  1.0000
  C   C7        1.0  0.31720  0.35894  0.91632  1.0000
  H   H14       1.0  0.55759  0.44766  0.95277  1.0000
  C   C8        1.0  0.22185  0.56832  0.02333  1.0000
  H   H15       1.0  0.59079  0.25750  0.94565  1.0000
  C   C9        1.0  0.58305  0.60450  0.04257  1.0000
  H   H16       1.0  0.31923  0.46373  0.88790  1.0000
  H   H17       1.0  0.15873  0.18873  0.89907  1.0000
  C   C10       1.0  0.53940  0.18998  0.05326  1.0000
  H   H18       1.0  0.15740  0.44253  0.03275  1.0000
  C   C11       1.0  0.20176  0.18794  0.92585  1.0000
  H   H19       1.0  0.38748  0.45415  0.85573  1.0000
  C   C12       1.0  0.16791  0.63749  0.05928  1.0000
  S   S2        1.0  0.45225  0.33567  0.03407  1.0000
  H   H20       1.0  0.28451  0.25093  0.00196  1.0000
  H   H21       1.0  0.34975  0.38990  0.03946  1.0000
  C   C13       1.0  0.55060  0.47995  0.99060  1.0000
  C   C14       1.0  0.20109  0.33898  0.94049  1.0000
  C   C15       1.0  0.30081  0.38893  0.02528  1.0000
  C   C16       1.0  0.55427  0.23429  0.90203  1.0000
  C   C17       1.0  0.22610  0.63891  0.03379  1.0000
  H   H22       1.0  0.46760  0.23804  0.93810  1.0000
  H   H23       1.0  0.57085  0.17380  0.02540  1.0000
  H   H24       1.0  0.29916  0.64516  0.86731  1.0000
  H   H25       1.0  0.34366  0.16802  0.92397  1.0000
  H   H26       1.0  0.21194  0.37819  0.07786  1.0000
  C   C18       1.0  0.49198  0.48064  0.08581  1.0000
  H   H27       1.0  0.13208  0.50691  0.86380  1.0000
  C   C19       1.0  0.53207  0.56343  0.08793  1.0000
  C   C20       1.0  0.25750  0.37143  0.08535  1.0000
  S   S3        1.0  0.21957  0.27777  0.26075  1.0000
  Fe  Fe1       1.0  0.43108  0.25989  0.26451  1.0000
  S   S4        1.0  0.43566  0.20873  0.17054  1.0000
  H   H28       1.0  0.57622  0.30046  0.22503  1.0000
  H   H29       1.0  0.29110  0.60069  0.15533  1.0000
  H   H30       1.0  0.35633  0.57163  0.30883  1.0000
  C   C21       1.0  0.60642  0.29526  0.26322  1.0000
  H   H31       1.0  0.14475  0.16287  0.15216  1.0000
  H   H32       1.0  0.18835  0.61100  0.23932  1.0000
  H   H33       1.0  0.29387  0.41566  0.12463  1.0000
  H   H34       1.0  0.23868  0.31293  0.10304  1.0000
  H   H35       1.0  0.52482  0.59561  0.12562  1.0000
  C   C22       1.0  0.21756  0.50096  0.20939  1.0000
  C   C23       1.0  0.29037  0.62357  0.32062  1.0000
  N   N2        1.0  0.30042  0.64735  0.25246  1.0000
  C   C24       1.0  0.58713  0.29305  0.32657  1.0000
  C   C25       1.0  0.14219  0.24886  0.21237  1.0000
  S   S5        1.0  0.28408  0.18869  0.12614  1.0000
  H   H36       1.0  0.16926  0.50111  0.19555  1.0000
  H   H37       1.0  0.21171  0.47778  0.25747  1.0000
  Fe  Fe2       1.0  0.40279  0.28242  0.12586  1.0000
  Fe  Fe3       1.0  0.29112  0.24249  0.22358  1.0000
  S   S6        1.0  0.40817  0.34199  0.21981  1.0000
  H   H38       1.0  0.21694  0.45787  0.17513  1.0000
  H   H39       1.0  0.45320  0.44928  0.12130  1.0000
  H   H40       1.0  0.33369  0.57413  0.20939  1.0000
  C   C26       1.0  0.28926  0.58307  0.20541  1.0000
  H   H41       1.0  0.59513  0.51233  0.19382  1.0000
  S   S7        1.0  0.31419  0.16391  0.27507  1.0000
  H   H42       1.0  0.23155  0.58276  0.32862  1.0000
  H   H43       1.0  0.54100  0.17225  0.10253  1.0000
  C   C27       1.0  0.60523  0.47050  0.21562  1.0000
  H   H44       1.0  0.56915  0.41056  0.19149  1.0000
  H   H45       1.0  0.58854  0.46493  0.26571  1.0000
  H   H46       1.0  0.62046  0.42450  0.10199  1.0000
  H   H47       1.0  0.30310  0.33093  0.37885  1.0000
  H   H48       1.0  0.38221  0.47491  0.38066  1.0000
  C   C28       1.0  0.29136  0.36486  0.41290  1.0000
  H   H49       1.0  0.30447  0.21206  0.45999  1.0000
  H   H50       1.0  0.35429  0.48750  0.45640  1.0000
  H   H51       1.0  0.35311  0.37027  0.53381  1.0000
  S   S8        1.0  0.29085  0.58410  0.51442  1.0000
  Fe  Fe4       1.0  0.15155  0.63739  0.54119  1.0000
  S   S9        1.0  0.51401  0.29850  0.34575  1.0000
  H   H52       1.0  0.40617  0.44405  0.44966  1.0000
  C   C29       1.0  0.53668  0.19768  0.55076  1.0000
  H   H53       1.0  0.36771  0.62003  0.38534  1.0000
  H   H54       1.0  0.43828  0.15417  0.44694  1.0000
  H   H55       1.0  0.52498  0.23312  0.52056  1.0000
  N   N3        1.0  0.25609  0.31845  0.47042  1.0000
  H   H56       1.0  0.25397  0.37462  0.38514  1.0000
  Fe  Fe5       1.0  0.17906  0.52599  0.46894  1.0000
  C   C30       1.0  0.23110  0.36098  0.51017  1.0000
  H   H57       1.0  0.27830  0.41896  0.53072  1.0000
  H   H58       1.0  0.28231  0.27470  0.55168  1.0000
  C   C31       1.0  0.18626  0.31752  0.56747  1.0000
  H   H59       1.0  0.17320  0.19693  0.48797  1.0000
  C   C32       1.0  0.34489  0.27475  0.47687  1.0000
  H   H60       1.0  0.19871  0.37567  0.48020  1.0000
  H   H61       1.0  0.38346  0.27468  0.51176  1.0000
  C   C33       1.0  0.36251  0.44738  0.42686  1.0000
  C   C34       1.0  0.19324  0.23634  0.44731  1.0000
  C   C35       1.0  0.30918  0.31170  0.51104  1.0000
  S   S10       1.0  0.13907  0.43267  0.38927  1.0000
  S   S11       1.0  0.19312  0.63954  0.44476  1.0000
  H   H62       1.0  0.59287  0.23879  0.57219  1.0000
  H   H63       1.0  0.61327  0.28676  0.42500  1.0000
  H   H64       1.0  0.21114  0.20895  0.41254  1.0000
  H   H65       1.0  0.37675  0.30892  0.43656  1.0000
  H   H66       1.0  0.28724  0.52533  0.36358  1.0000
  H   H67       1.0  0.13563  0.25947  0.55279  1.0000
  C   C36       1.0  0.62762  0.28795  0.37596  1.0000
  H   H68       1.0  0.13938  0.28647  0.39530  1.0000
  H   H69       1.0  0.57572  0.15838  0.47703  1.0000
  H   H70       1.0  0.50045  0.17627  0.59102  1.0000
  H   H71       1.0  0.16981  0.35410  0.59143  1.0000
  C   C37       1.0  0.32781  0.58323  0.34477  1.0000
  H   H72       1.0  0.60127  0.32594  0.71143  1.0000
  H   H73       1.0  0.49174  0.50120  0.78650  1.0000
  S   S12       1.0  0.40889  0.37339  0.66759  1.0000
  C   C38       1.0  0.60766  0.16409  0.71911  1.0000
  Fe  Fe6       1.0  0.24225  0.58803  0.60550  1.0000
  H   H74       1.0  0.30289  0.35583  0.75355  1.0000
  C   C39       1.0  0.58363  0.26572  0.71911  1.0000
  H   H75       1.0  0.42694  0.50394  0.60402  1.0000
  C   C40       1.0  0.30552  0.51030  0.69393  1.0000
  C   C41       1.0  0.57926  0.60819  0.74308  1.0000
  H   H76       1.0  0.17943  0.23213  0.78189  1.0000
  H   H77       1.0  0.44929  0.57777  0.75344  1.0000
  S   S13       1.0  0.26536  0.56265  0.70305  1.0000
  H   H78       1.0  0.48702  0.61009  0.83191  1.0000
  C   C42       1.0  0.31773  0.40457  0.72412  1.0000
  C   C43       1.0  0.51285  0.21072  0.73700  1.0000
  H   H79       1.0  0.25087  0.43533  0.77068  1.0000
  C   C44       1.0  0.38738  0.48779  0.63952  1.0000
  H   H80       1.0  0.37142  0.57942  0.61842  1.0000
  H   H81       1.0  0.22905  0.63157  0.81410  1.0000
  H   H82       1.0  0.21846  0.30995  0.60411  1.0000
  C   C45       1.0  0.35542  0.52992  0.64714  1.0000
  H   H83       1.0  0.47634  0.22903  0.74386  1.0000
  H   H84       1.0  0.57262  0.56163  0.83917  1.0000
  C   C46       1.0  0.28812  0.44904  0.73354  1.0000
  S   S14       1.0  0.31546  0.18939  0.77881  1.0000
  H   H85       1.0  0.55339  0.57697  0.69527  1.0000
  Fe  Fe7       1.0  0.33427  0.24423  0.68420  1.0000
  C   C47       1.0  0.48931  0.63177  0.78379  1.0000
  S   S15       1.0  0.21751  0.16695  0.64761  1.0000
  C   C48       1.0  0.55189  0.54065  0.78901  1.0000
  C   C49       1.0  0.36775  0.42446  0.67739  1.0000
  H   H86       1.0  0.13809  0.31877  0.75506  1.0000
  H   H87       1.0  0.57070  0.50276  0.77341  1.0000
  S   S16       1.0  0.36251  0.16576  0.63735  1.0000
  H   H88       1.0  0.40845  0.65205  0.81460  1.0000
  Fe  Fe8       1.0  0.40029  0.68146  0.01130  1.0000
  C   C50       1.0  0.27363  0.83049  0.89617  1.0000
  C   C51       1.0  0.61099  0.03263  0.96112  1.0000
  H   H89       1.0  0.27320  0.69424  0.02097  1.0000
  H   H90       1.0  0.58438  0.66747  0.89089  1.0000
  H   H91       1.0  0.46003  0.96183  0.96126  1.0000
  C   C52       1.0  0.46603  0.06831  0.93884  1.0000
  H   H92       1.0  0.58652  0.99007  0.99711  1.0000
  H   H93       1.0  0.29800  0.81536  0.93512  1.0000
  H   H94       1.0  0.44553  0.04258  0.88898  1.0000
  C   C53       1.0  0.36031  0.07365  0.94615  1.0000
  C   C54       1.0  0.44404  0.99992  0.98271  1.0000
  H   H95       1.0  0.47284  0.02237  0.03078  1.0000
  H   H96       1.0  0.17042  0.69176  0.06616  1.0000
  H   H97       1.0  0.52550  0.10113  0.93714  1.0000
  C   C55       1.0  0.45966  0.14871  0.02780  1.0000
  Fe  Fe9       1.0  0.55805  0.74248  0.04402  1.0000
  H   H98       1.0  0.26708  0.87736  0.91548  1.0000
  S   S17       1.0  0.59407  0.86867  0.04777  1.0000
  C   C56       1.0  0.32407  0.11892  0.95620  1.0000
  S   S18       1.0  0.49219  0.71005  0.95172  1.0000
  H   H99       1.0  0.33316  0.02379  0.97814  1.0000
  H   H100      1.0  0.42496  0.09892  0.05861  1.0000
  H   H101      1.0  0.17616  0.12813  0.94431  1.0000
  H   H102      1.0  0.37936  0.89460  0.86134  1.0000
  S   S19       1.0  0.55646  0.90605  0.87412  1.0000
  S   S20       1.0  0.42408  0.80336  0.01025  1.0000
  H   H103      1.0  0.38498  0.96132  0.98828  1.0000
  N   N4        1.0  0.44196  0.12167  0.95794  1.0000
  Fe  Fe10      1.0  0.52201  0.83411  0.95913  1.0000
  H   H104      1.0  0.26472  0.07732  0.94490  1.0000
  H   H105      1.0  0.34408  0.04620  0.89625  1.0000
  H   H106      1.0  0.25362  0.69065  0.88906  1.0000
  C   C57       1.0  0.60289  0.00720  0.89666  1.0000
  C   C58       1.0  0.27455  0.67554  0.84808  1.0000
  H   H107      1.0  0.33118  0.14164  0.00662  1.0000
  H   H108      1.0  0.21774  0.77940  0.88326  1.0000
  H   H109      1.0  0.38206  0.78225  0.84716  1.0000
  C   C59       1.0  0.39740  0.01509  0.19638  1.0000
  H   H110      1.0  0.38004  0.73898  0.19536  1.0000
  S   S21       1.0  0.49972  0.90321  0.18344  1.0000
  C   C60       1.0  0.44773  0.99505  0.20503  1.0000
  C   C61       1.0  0.24931  0.73393  0.26927  1.0000
  H   H111      1.0  0.40745  0.06812  0.22067  1.0000
  H   H112      1.0  0.49054  0.77669  0.25306  1.0000
  H   H113      1.0  0.25395  0.73263  0.32194  1.0000
  H   H114      1.0  0.38124  0.77280  0.27511  1.0000
  C   C62       1.0  0.37031  0.87544  0.13694  1.0000
  H   H115      1.0  0.35825  0.82018  0.11562  1.0000
  Fe  Fe11      1.0  0.49359  0.82822  0.09954  1.0000
  H   H116      1.0  0.62666  0.93188  0.27580  1.0000
  H   H117      1.0  0.44669  0.72328  0.32029  1.0000
  C   C63       1.0  0.37426  0.72220  0.24591  1.0000
  C   C64       1.0  0.33421  0.96623  0.15681  1.0000
  H   H118      1.0  0.49720  0.03395  0.23451  1.0000
  C   C65       1.0  0.44075  0.72162  0.26737  1.0000
  C   C66       1.0  0.24411  0.66349  0.23305  1.0000
  H   H119      1.0  0.19912  0.73142  0.25729  1.0000
  S   S22       1.0  0.27304  0.99305  0.14179  1.0000
  C   C67       1.0  0.32025  0.89577  0.12786  1.0000
  H   H120      1.0  0.24581  0.67461  0.18119  1.0000
  H   H121      1.0  0.61046  0.03055  0.27852  1.0000
  C   C68       1.0  0.43478  0.92582  0.17455  1.0000
  H   H122      1.0  0.29487  0.79162  0.25374  1.0000
  Fe  Fe12      1.0  0.31731  0.11808  0.17702  1.0000
  H   H123      1.0  0.27074  0.85702  0.09829  1.0000
  S   S23       1.0  0.46354  0.70373  0.10406  1.0000
  H   H124      1.0  0.44075  0.67180  0.24504  1.0000
  H   H125      1.0  0.37464  0.08751  0.34295  1.0000
  S   S24       1.0  0.21743  0.02551  0.50905  1.0000
  H   H126      1.0  0.49175  0.14035  0.39517  1.0000
  C   C69       1.0  0.41006  0.00070  0.58313  1.0000
  H   H127      1.0  0.17409  0.76465  0.47460  1.0000
  C   C70       1.0  0.60159  0.92611  0.55277  1.0000
  H   H128      1.0  0.49726  0.03962  0.35230  1.0000
  S   S25       1.0  0.40484  0.79558  0.45687  1.0000
  H   H129      1.0  0.22617  0.90285  0.44775  1.0000
  C   C71       1.0  0.17060  0.92391  0.51942  1.0000
  H   H130      1.0  0.40700  0.75333  0.58669  1.0000
  H   H131      1.0  0.41070  0.94787  0.57066  1.0000
  C   C72       1.0  0.54595  0.89366  0.50414  1.0000
  C   C73       1.0  0.53266  0.12965  0.51176  1.0000
  C   C74       1.0  0.39990  0.03592  0.52299  1.0000
  H   H132      1.0  0.37522  0.00287  0.35792  1.0000
  C   C75       1.0  0.18801  0.87752  0.48474  1.0000
  H   H133      1.0  0.34773  0.98754  0.49830  1.0000
  Fe  Fe13      1.0  0.30236  0.69755  0.49605  1.0000
  C   C76       1.0  0.47532  0.83221  0.51644  1.0000
  H   H134      1.0  0.57173  0.06918  0.40979  1.0000
  H   H135      1.0  0.51255  0.96835  0.37916  1.0000
  C   C77       1.0  0.51450  0.02206  0.39483  1.0000
  H   H136      1.0  0.48191  0.97889  0.48770  1.0000
  C   C78       1.0  0.46348  0.00185  0.44999  1.0000
  H   H137      1.0  0.55058  0.10134  0.54467  1.0000
  H   H138      1.0  0.31003  0.67623  0.35397  1.0000
  C   C79       1.0  0.15850  0.79922  0.49997  1.0000
  H   H139      1.0  0.38996  0.08142  0.53879  1.0000
  N   N5        1.0  0.46023  0.06887  0.47767  1.0000
  H   H140      1.0  0.55743  0.91690  0.45735  1.0000
  H   H141      1.0  0.40849  0.95036  0.43266  1.0000
  C   C80       1.0  0.46088  0.80176  0.57699  1.0000
  C   C81       1.0  0.37616  0.05275  0.38168  1.0000
  C   C82       1.0  0.44499  0.10801  0.42590  1.0000
  H   H142      1.0  0.32614  0.02999  0.40769  1.0000
  S   S26       1.0  0.26201  0.70601  0.59027  1.0000
  H   H143      1.0  0.62656  0.04346  0.80021  1.0000
  C   C83       1.0  0.45837  0.68296  0.78757  1.0000
  C   C84       1.0  0.20994  0.80034  0.72467  1.0000
  C   C85       1.0  0.56310  0.70579  0.69628  1.0000
  H   H144      1.0  0.50367  0.81400  0.67324  1.0000
  C   C86       1.0  0.36239  0.84702  0.73572  1.0000
  C   C87       1.0  0.23598  0.75349  0.75794  1.0000
  C   C88       1.0  0.62162  0.73606  0.80348  1.0000
  C   C89       1.0  0.62957  0.73650  0.65561  1.0000
  H   H145      1.0  0.23913  0.82662  0.68090  1.0000
  H   H146      1.0  0.21456  0.84710  0.75729  1.0000
  H   H147      1.0  0.46383  0.93251  0.79344  1.0000
  H   H148      1.0  0.56025  0.75771  0.70619  1.0000
  C   C90       1.0  0.44413  0.88835  0.75236  1.0000
  H   H149      1.0  0.34734  0.72302  0.77375  1.0000
  H   H150      1.0  0.31962  0.90915  0.81912  1.0000
  H   H151      1.0  0.35552  0.89401  0.71981  1.0000
  Fe  Fe14      1.0  0.24487  0.08427  0.60779  1.0000
  C   C91       1.0  0.33273  0.74820  0.81368  1.0000
  H   H152      1.0  0.47458  0.92030  0.71056  1.0000
  Fe  Fe15      1.0  0.33468  0.10456  0.72859  1.0000
  H   H153      1.0  0.49688  0.74194  0.81232  1.0000
  N   N6        1.0  0.31238  0.80195  0.78801  1.0000
  H   H154      1.0  0.15169  0.75905  0.70852  1.0000
  C   C92       1.0  0.53801  0.11010  0.73864  1.0000
  Fe  Fe16      1.0  0.20048  0.10551  0.73863  1.0000
  H   H155      1.0  0.34964  0.80689  0.69281  1.0000
  H   H156      1.0  0.52127  0.05065  0.74635  1.0000
  H   H157      1.0  0.45957  0.04460  0.61321  1.0000
  H   H158      1.0  0.45832  0.84552  0.76193  1.0000
  H   H159      1.0  0.44176  0.69023  0.73923  1.0000
  C   C93       1.0  0.32307  0.86172  0.83944  1.0000
  H   H160      1.0  0.19563  0.71812  0.79298  1.0000
  C   C94       1.0  0.51614  0.83515  0.62588  1.0000
  H   H161      1.0  0.22994  0.70843  0.72187  1.0000
  S   S27       1.0  0.21890  0.01663  0.69606  1.0000
  S   S28       1.0  0.40110  0.06231  0.76594  1.0000
  C   C95       1.0  0.49004  0.13264  0.74644  1.0000
  C   C96       1.0  0.58641  0.89806  0.61417  1.0000
  N   N7        1.0  0.56357  0.67000  0.75805  1.0000
  H   H162      1.0  0.61333  0.78469  0.81072  1.0000
  H   H163      1.0  0.62088  0.75978  0.61160  1.0000
  H   H164      1.0  0.36333  0.98103  0.61331  1.0000
  H   H165      1.0  0.51406  0.66238  0.66473  1.0000
  H   H166      1.0  0.89498  0.22954  0.90740  1.0000
  H   H167      1.0  0.73750  0.62470  0.02875  1.0000
  H   H168      1.0  0.09026  0.23155  0.93821  1.0000
  H   H169      1.0  0.09908  0.64329  0.91970  1.0000
  H   H170      1.0  0.07829  0.54767  0.93418  1.0000
  C   C97       1.0  0.92547  0.21377  0.87700  1.0000
  S   S29       1.0  0.94687  0.18732  0.08294  1.0000
  H   H171      1.0  0.98203  0.26679  0.87763  1.0000
  S   S30       1.0  0.72692  0.27037  0.95553  1.0000
  H   H172      1.0  0.00333  0.41833  0.89765  1.0000
  C   C98       1.0  0.05725  0.57893  0.91016  1.0000
  C   C99       1.0  0.10319  0.49571  0.06635  1.0000
  H   H173      1.0  0.00794  0.56615  0.93324  1.0000
  H   H174      1.0  0.91629  0.44975  0.88954  1.0000
  Fe  Fe17      1.0  0.79922  0.29746  0.04230  1.0000
  C   C100      1.0  0.01289  0.42302  0.84563  1.0000
  C   C101      1.0  0.67981  0.16931  0.93297  1.0000
  C   C102      1.0  0.76974  0.62917  0.07213  1.0000
  H   H175      1.0  0.95969  0.16740  0.94900  1.0000
  H   H176      1.0  0.80370  0.60830  0.05739  1.0000
  H   H177      1.0  0.69378  0.48506  0.01205  1.0000
  C   C103      1.0  0.10614  0.56560  0.07508  1.0000
  H   H178      1.0  0.05701  0.44046  0.08051  1.0000
  S   S31       1.0  0.91452  0.34458  0.02489  1.0000
  H   H179      1.0  0.75991  0.46519  0.03993  1.0000
  C   C104      1.0  0.70306  0.44714  0.04141  1.0000
  H   H180      1.0  0.66943  0.38676  0.01724  1.0000
  H   H181      1.0  0.09976  0.40497  0.85852  1.0000
  H   H182      1.0  0.09892  0.31758  0.97014  1.0000
  H   H183      1.0  0.12836  0.27038  0.01897  1.0000
  C   C105      1.0  0.12650  0.28614  0.96949  1.0000
  H   H184      1.0  0.63119  0.59458  0.95833  1.0000
  C   C106      1.0  0.66712  0.29413  0.24956  1.0000
  H   H185      1.0  0.88464  0.24000  0.32377  1.0000
  H   H186      1.0  0.87302  0.16140  0.22565  1.0000
  N   N8        1.0  0.72077  0.51829  0.15317  1.0000
  Fe  Fe18      1.0  0.94156  0.43362  0.10565  1.0000
  C   C107      1.0  0.10549  0.28477  0.22491  1.0000
  H   H187      1.0  0.01794  0.29386  0.19543  1.0000
  C   C108      1.0  0.70749  0.28931  0.29929  1.0000
  C   C109      1.0  0.11753  0.19209  0.16110  1.0000
  H   H188      1.0  0.12361  0.32761  0.26526  1.0000
  C   C110      1.0  0.67780  0.44358  0.10969  1.0000
  H   H189      1.0  0.66269  0.56163  0.10788  1.0000
  H   H190      1.0  0.69060  0.45487  0.24028  1.0000
  H   H191      1.0  0.06638  0.57952  0.33969  1.0000
  H   H192      1.0  0.03658  0.48546  0.30189  1.0000
  H   H193      1.0  0.81947  0.46045  0.30153  1.0000
  H   H194      1.0  0.01325  0.33962  0.30374  1.0000
  H   H195      1.0  0.93485  0.49822  0.30224  1.0000
  S   S32       1.0  0.94235  0.35888  0.18027  1.0000
  S   S33       1.0  0.78671  0.29421  0.28528  1.0000
  H   H196      1.0  0.68284  0.29720  0.20085  1.0000
  C   C111      1.0  0.02140  0.21035  0.13336  1.0000
  H   H197      1.0  0.83870  0.55196  0.33906  1.0000
  H   H198      1.0  0.90368  0.62747  0.21107  1.0000
  Fe  Fe19      1.0  0.82447  0.30968  0.18602  1.0000
  H   H199      1.0  0.71457  0.55336  0.25077  1.0000
  S   S34       1.0  0.03119  0.56181  0.10302  1.0000
  C   C112      1.0  0.05689  0.17262  0.12168  1.0000
  S   S35       1.0  0.82631  0.39225  0.11757  1.0000
  C   C113      1.0  0.79691  0.53955  0.16617  1.0000
  C   C114      1.0  0.68604  0.50011  0.21683  1.0000
  H   H200      1.0  0.82356  0.54194  0.12185  1.0000
  H   H201      1.0  0.67605  0.39401  0.13230  1.0000
  C   C115      1.0  0.04563  0.26593  0.18518  1.0000
  C   C116      1.0  0.84996  0.61897  0.20496  1.0000
  H   H202      1.0  0.83246  0.62053  0.25349  1.0000
  C   C117      1.0  0.71872  0.58451  0.12632  1.0000
  H   H203      1.0  0.79564  0.49232  0.19236  1.0000
  S   S36       1.0  0.78842  0.21090  0.11156  1.0000
  H   H204      1.0  0.73126  0.63012  0.16504  1.0000
  Fe  Fe20      1.0  0.90689  0.26583  0.10056  1.0000
  H   H205      1.0  0.07251  0.35425  0.50340  1.0000
  H   H206      1.0  0.94495  0.25054  0.52263  1.0000
  H   H207      1.0  0.71718  0.27907  0.40058  1.0000
  Fe  Fe21      1.0  0.80449  0.17485  0.54470  1.0000
  N   N9        1.0  0.93350  0.51949  0.40432  1.0000
  H   H208      1.0  0.94812  0.39531  0.44184  1.0000
  H   H209      1.0  0.94356  0.52885  0.50813  1.0000
  H   H210      1.0  0.87388  0.38373  0.48471  1.0000
  H   H211      1.0  0.95995  0.42182  0.52516  1.0000
  C   C118      1.0  0.12728  0.23075  0.41414  1.0000
  C   C119      1.0  0.90623  0.23835  0.42438  1.0000
  H   H212      1.0  0.89134  0.63168  0.43096  1.0000
  H   H213      1.0  0.82582  0.41278  0.40556  1.0000
  C   C120      1.0  0.05101  0.35367  0.40224  1.0000
  C   C121      1.0  0.95957  0.26977  0.47484  1.0000
  C   C122      1.0  0.93326  0.42188  0.47953  1.0000
  H   H214      1.0  0.02046  0.54371  0.47186  1.0000
  C   C123      1.0  0.03188  0.32836  0.46394  1.0000
  C   C124      1.0  0.96016  0.50771  0.46707  1.0000
  H   H215      1.0  0.83668  0.49515  0.44847  1.0000
  H   H216      1.0  0.08213  0.20790  0.44663  1.0000
  H   H217      1.0  0.05055  0.49873  0.38664  1.0000
  H   H218      1.0  0.10589  0.18685  0.37235  1.0000
  C   C125      1.0  0.85240  0.47771  0.40432  1.0000
  S   S37       1.0  0.81465  0.17368  0.43929  1.0000
  S   S38       1.0  0.12853  0.51899  0.56163  1.0000
  H   H219      1.0  0.03073  0.63869  0.40754  1.0000
  C   C126      1.0  0.99847  0.31936  0.35125  1.0000
  C   C127      1.0  0.68663  0.28421  0.36218  1.0000
  C   C128      1.0  0.97098  0.60727  0.39792  1.0000
  C   C129      1.0  0.92587  0.26254  0.36248  1.0000
  H   H220      1.0  0.95234  0.63987  0.49397  1.0000
  C   C130      1.0  0.94751  0.64956  0.44298  1.0000
  H   H221      1.0  0.96400  0.61994  0.34798  1.0000
  H   H222      1.0  0.75731  0.45962  0.35355  1.0000
  C   C131      1.0  0.03098  0.51482  0.34480  1.0000
  H   H223      1.0  0.91841  0.41941  0.34782  1.0000
  C   C132      1.0  0.81596  0.48903  0.34592  1.0000
  C   C133      1.0  0.95070  0.48516  0.34846  1.0000
  Fe  Fe22      1.0  0.88660  0.21851  0.67371  1.0000
  C   C134      1.0  0.02645  0.22254  0.73778  1.0000
  S   S39       1.0  0.71751  0.30768  0.68318  1.0000
  C   C135      1.0  0.95885  0.50064  0.70427  1.0000
  H   H224      1.0  0.98727  0.56511  0.71577  1.0000
  H   H225      1.0  0.96108  0.40015  0.72712  1.0000
  Fe  Fe23      1.0  0.75945  0.23378  0.65687  1.0000
  H   H226      1.0  0.09694  0.58339  0.81640  1.0000
  H   H227      1.0  0.90080  0.48606  0.81991  1.0000
  H   H228      1.0  0.02427  0.59521  0.81843  1.0000
  H   H229      1.0  0.84929  0.34900  0.76199  1.0000
  C   C136      1.0  0.04352  0.55933  0.83701  1.0000
  H   H230      1.0  0.04710  0.49039  0.72851  1.0000
  H   H231      1.0  0.89978  0.47054  0.70969  1.0000
  S   S40       1.0  0.78664  0.17294  0.72764  1.0000
  H   H232      1.0  0.97790  0.36140  0.82440  1.0000
  C   C137      1.0  0.85465  0.36041  0.81459  1.0000
  S   S41       1.0  0.99861  0.28487  0.72060  1.0000
  H   H233      1.0  0.10487  0.45142  0.78685  1.0000
  C   C138      1.0  0.12260  0.20658  0.77010  1.0000
  H   H234      1.0  0.80225  0.34936  0.82890  1.0000
  N   N10       1.0  0.99098  0.47317  0.81576  1.0000
  H   H235      1.0  0.86087  0.31659  0.83808  1.0000
  S   S42       1.0  0.86299  0.28634  0.60814  1.0000
  C   C139      1.0  0.91663  0.44627  0.83641  1.0000
  H   H236      1.0  0.90303  0.20113  0.82681  1.0000
  C   C140      1.0  0.09948  0.25551  0.75485  1.0000
  H   H237      1.0  0.69278  0.18714  0.83244  1.0000
  H   H238      1.0  0.96536  0.49286  0.65268  1.0000
  C   C141      1.0  0.63076  0.24196  0.70955  1.0000
  C   C142      1.0  0.99098  0.46374  0.74387  1.0000
  H   H239      1.0  0.63863  0.63656  0.73976  1.0000
  C   C143      1.0  0.09204  0.44923  0.83780  1.0000
  C   C144      1.0  0.63263  0.06291  0.85022  1.0000
  H   H240      1.0  0.82198  0.95653  0.94938  1.0000
  C   C145      1.0  0.65069  0.11362  0.97942  1.0000
  H   H241      1.0  0.77998  0.10196  0.91702  1.0000
  H   H242      1.0  0.78141  0.00371  0.02522  1.0000
  C   C146      1.0  0.67027  0.14398  0.86835  1.0000
  H   H243      1.0  0.89909  0.04111  0.98919  1.0000
  N   N11       1.0  0.85639  0.06807  0.90772  1.0000
  H   H244      1.0  0.80645  0.69339  0.08659  1.0000
  C   C147      1.0  0.87224  0.01427  0.94065  1.0000
  H   H245      1.0  0.72561  0.03882  0.01485  1.0000
  H   H246      1.0  0.65643  0.13271  0.02932  1.0000
  H   H247      1.0  0.71357  0.96394  0.95826  1.0000
  H   H248      1.0  0.92511  0.95181  0.93322  1.0000
  H   H249      1.0  0.84417  0.13594  0.98255  1.0000
  C   C148      1.0  0.63441  0.71379  0.86965  1.0000
  C   C149      1.0  0.75452  0.01783  0.98810  1.0000
  C   C150      1.0  0.81007  0.08448  0.94753  1.0000
  H   H250      1.0  0.97678  0.04690  0.90233  1.0000
  H   H251      1.0  0.96262  0.13820  0.86889  1.0000
  C   C151      1.0  0.92054  0.99432  0.90550  1.0000
  H   H252      1.0  0.67253  0.69514  0.86748  1.0000
  H   H253      1.0  0.89683  0.96523  0.85718  1.0000
  H   H254      1.0  0.65791  0.76602  0.90436  1.0000
  H   H255      1.0  0.74297  0.91252  0.87048  1.0000
  C   C152      1.0  0.92840  0.14552  0.90179  1.0000
  S   S43       1.0  0.63662  0.70776  0.04818  1.0000
  H   H256      1.0  0.03784  0.12879  0.08203  1.0000
  H   H257      1.0  0.66722  0.97836  0.17252  1.0000
  H   H258      1.0  0.92762  0.13539  0.26629  1.0000
  H   H259      1.0  0.82698  0.09081  0.33078  1.0000
  H   H260      1.0  0.76684  0.14505  0.23741  1.0000
  C   C153      1.0  0.81295  0.05679  0.28381  1.0000
  C   C154      1.0  0.72362  0.00022  0.18948  1.0000
  C   C155      1.0  0.73186  0.93140  0.17255  1.0000
  H   H261      1.0  0.63736  0.06212  0.19812  1.0000
  H   H262      1.0  0.81743  0.00670  0.29440  1.0000
  H   H263      1.0  0.74454  0.12322  0.31689  1.0000
  H   H264      1.0  0.87277  0.07689  0.19650  1.0000
  H   H265      1.0  0.69223  0.91139  0.29306  1.0000
  C   C156      1.0  0.68305  0.95957  0.29657  1.0000
  H   H266      1.0  0.77210  0.93113  0.20450  1.0000
  C   C157      1.0  0.72881  0.09623  0.26710  1.0000
  N   N12       1.0  0.73708  0.02809  0.25920  1.0000
  C   C158      1.0  0.65268  0.07742  0.24999  1.0000
  H   H267      1.0  0.67897  0.87330  0.17402  1.0000
  H   H268      1.0  0.75163  0.93702  0.12375  1.0000
  C   C159      1.0  0.87430  0.11053  0.24000  1.0000
  H   H269      1.0  0.65298  0.13100  0.26133  1.0000
  H   H270      1.0  0.85881  0.67025  0.17990  1.0000
  H   H271      1.0  0.75777  0.04983  0.15848  1.0000
  S   S44       1.0  0.07583  0.67038  0.57014  1.0000
  H   H272      1.0  0.64493  0.92333  0.39126  1.0000
  H   H273      1.0  0.66793  0.02046  0.37760  1.0000
  H   H274      1.0  0.98381  0.71448  0.43813  1.0000
  C   C160      1.0  0.10968  0.76651  0.54832  1.0000
  S   S45       1.0  0.69804  0.12782  0.58739  1.0000
  C   C161      1.0  0.12001  0.89032  0.56633  1.0000
  C   C162      1.0  0.08896  0.81135  0.58033  1.0000
  H   H275      1.0  0.65626  0.97297  0.54272  1.0000
  H   H276      1.0  0.73816  0.00312  0.39318  1.0000
  C   C163      1.0  0.68429  0.97888  0.36861  1.0000
  H   H277      1.0  0.10526  0.92558  0.59225  1.0000
  H   H278      1.0  0.05076  0.78604  0.61738  1.0000
  C   C164      1.0  0.97616  0.14055  0.73621  1.0000
  H   H279      1.0  0.81045  0.07614  0.81832  1.0000
  H   H280      1.0  0.91986  0.11506  0.72212  1.0000
  C   C165      1.0  0.82100  0.03515  0.84149  1.0000
  C   C166      1.0  0.74719  0.95462  0.83640  1.0000
  H   H281      1.0  0.73911  0.92539  0.78816  1.0000
  C   C167      1.0  0.99877  0.09164  0.75371  1.0000
  H   H282      1.0  0.68029  0.78683  0.68047  1.0000
  Fe  Fe24      1.0  0.73303  0.07008  0.65414  1.0000
  H   H283      1.0  0.64356  0.14517  0.71199  1.0000
  C   C168      1.0  0.07199  0.12478  0.77066  1.0000
  H   H284      1.0  0.67519  0.76578  0.78221  1.0000
  S   S46       1.0  0.65421  0.94338  0.67675  1.0000
  H   H285      1.0  0.96004  0.02815  0.75255  1.0000
  H   H286      1.0  0.85760  0.03190  0.80879  1.0000
  S   S47       1.0  0.10081  0.06426  0.79169  1.0000
  S   S48       1.0  0.83589  0.11041  0.60637  1.0000
  H   H287      1.0  0.63687  0.68919  0.63969  1.0000
  H   H288      1.0  0.70248  0.96282  0.84244  1.0000
