data_image0
_chemical_formula_structural       NHFeSH2S2C3H2CH4C2H4CH5C2H2SHCFeC2NCH2C2H3CH2C3FeSHCSH2SC2H2CHNHCH2SCH4FeC2HC3NH7CH2CHCH4CH4NC4HC2H6SC6H4FeH3CH3SCHSH4FeSCHCHFeS3C2HSH2CHFeS2HFe2SCSHC4H2CHNC2HCHC2H4CH2CH4CH2SC2H3CH6CH3CSFeSFeC4H2CSH3C2HCH2CH6C3H4CH5SH2S2H4C6H4NC2HCHCHCH4CH2CHCH4CFeCH5CHFeHSFeSHC6H4S2H2CH2CHCH3CH5FeSFeS2FeHFeS3HC2H3C6H5SHCH4CHCH3CNCH2CHCHSH2C3H9C2HC2H2S2FeSFeHFeSFeCS3H5C6H6C2HFeNCHCHSH2SH2C3H2CH3NHC2H2CHCH2C2H3C2H3CH4CH2NCHCH2CHCH2C2H6C2H5NCH
_chemical_formula_sum              "N12 H288 Fe24 S48 C168"
_cell_length_a       29.0274
_cell_length_b       29.3754
_cell_length_c       32.0292
_cell_angle_alpha    90.3648
_cell_angle_beta     90.178
_cell_angle_gamma    120.004

_space_group_name_H-M_alt    "P 1"
_space_group_IT_number       1

loop_
  _space_group_symop_operation_xyz
  'x, y, z'

loop_
  _atom_site_type_symbol
  _atom_site_label
  _atom_site_symmetry_multiplicity
  _atom_site_fract_x
  _atom_site_fract_y
  _atom_site_fract_z
  _atom_site_occupancy
  N   N1        1.0  0.52050  0.21554  0.43295  1.0000
  H   H1        1.0  0.50336  0.15298  0.38881  1.0000
  Fe  Fe1       1.0  0.47017  0.20783  0.58302  1.0000
  S   S1        1.0  0.39772  0.13804  0.55263  1.0000
  H   H2        1.0  0.42626  0.46429  0.62333  1.0000
  H   H3        1.0  0.45036  0.46135  0.57273  1.0000
  S   S2        1.0  0.49947  0.29025  0.55939  1.0000
  S   S3        1.0  0.47239  0.23131  0.65048  1.0000
  C   C1        1.0  0.30206  0.42581  0.60239  1.0000
  C   C2        1.0  0.43781  0.07091  0.53873  1.0000
  C   C3        1.0  0.39468  0.07928  0.53448  1.0000
  H   H4        1.0  0.25776  0.43936  0.65195  1.0000
  H   H5        1.0  0.47343  0.09990  0.55475  1.0000
  C   C4        1.0  0.38806  0.48233  0.57111  1.0000
  H   H6        1.0  0.38458  0.30407  0.65140  1.0000
  H   H7        1.0  0.46915  0.18783  0.37837  1.0000
  H   H8        1.0  0.38722  0.40927  0.58875  1.0000
  H   H9        1.0  0.39888  0.11073  0.40122  1.0000
  C   C5        1.0  0.39016  0.33873  0.66795  1.0000
  C   C6        1.0  0.43223  0.12586  0.42413  1.0000
  H   H10       1.0  0.43819  0.09202  0.43058  1.0000
  H   H11       1.0  0.31437  0.04638  0.51127  1.0000
  H   H12       1.0  0.36316  0.47917  0.66156  1.0000
  H   H13       1.0  0.41636  0.21095  0.43599  1.0000
  C   C7        1.0  0.34809  0.04041  0.51456  1.0000
  H   H14       1.0  0.31693  0.40493  0.62236  1.0000
  H   H15       1.0  0.22588  0.37414  0.63142  1.0000
  H   H16       1.0  0.29095  0.40428  0.57191  1.0000
  H   H17       1.0  0.41785  0.13587  0.45267  1.0000
  H   H18       1.0  0.44342  0.27152  0.46408  1.0000
  C   C8        1.0  0.52617  0.19596  0.47500  1.0000
  C   C9        1.0  0.25000  0.41626  0.62283  1.0000
  H   H19       1.0  0.48812  0.17563  0.49203  1.0000
  H   H20       1.0  0.37236  0.46442  0.53976  1.0000
  S   S4        1.0  0.49917  0.38010  0.65733  1.0000
  H   H21       1.0  0.44326  0.21733  0.48841  1.0000
  C   C10       1.0  0.48251  0.17174  0.40412  1.0000
  Fe  Fe2       1.0  0.50854  0.31429  0.62738  1.0000
  C   C11       1.0  0.44847  0.23697  0.45808  1.0000
  C   C12       1.0  0.41403  0.45252  0.59049  1.0000
  N   N2        1.0  0.34461  0.48263  0.59668  1.0000
  C   C13       1.0  0.43483  0.02486  0.52233  1.0000
  H   H22       1.0  0.22545  0.42476  0.60113  1.0000
  H   H23       1.0  0.50265  0.27420  0.40912  1.0000
  C   C14       1.0  0.50378  0.25619  0.43922  1.0000
  C   C15       1.0  0.36347  0.50807  0.63918  1.0000
  H   H24       1.0  0.46865  0.01906  0.52552  1.0000
  H   H25       1.0  0.30145  0.48712  0.54307  1.0000
  H   H26       1.0  0.28756  0.50953  0.59072  1.0000
  C   C16       1.0  0.32007  0.50925  0.57254  1.0000
  H   H27       1.0  0.52809  0.12557  0.45214  1.0000
  H   H28       1.0  0.11071  0.37574  0.81660  1.0000
  C   C17       1.0  0.08965  0.43287  0.83692  1.0000
  C   C18       1.0  0.08143  0.38193  0.83250  1.0000
  C   C19       1.0  0.16231  0.45817  0.93952  1.0000
  Fe  Fe3       1.0  0.29434  0.46051  0.74768  1.0000
  S   S5        1.0  0.27297  0.46526  0.81457  1.0000
  H   H29       1.0  0.40925  0.46289  0.72758  1.0000
  C   C20       1.0  0.40362  0.42826  0.71099  1.0000
  S   S6        1.0  0.14729  0.48904  0.81768  1.0000
  H   H30       1.0  0.17237  0.42992  0.95406  1.0000
  H   H31       1.0  0.15195  0.44497  0.90640  1.0000
  S   S7        1.0  0.29473  0.38946  0.71849  1.0000
  C   C21       1.0  0.35212  0.38657  0.70338  1.0000
  C   C22       1.0  0.46002  0.37685  0.79916  1.0000
  H   H32       1.0  0.48496  0.41604  0.78499  1.0000
  H   H33       1.0  0.43724  0.29590  0.79152  1.0000
  C   C23       1.0  0.46742  0.33375  0.77759  1.0000
  H   H34       1.0  0.45499  0.33184  0.74436  1.0000
  N   N3        1.0  0.20895  0.51366  0.94171  1.0000
  H   H35       1.0  0.46763  0.37905  0.83324  1.0000
  C   C24       1.0  0.05121  0.44006  0.85790  1.0000
  H   H36       1.0  0.41802  0.36712  0.79483  1.0000
  H   H37       1.0  0.24472  0.43773  0.92344  1.0000
  S   S8        1.0  0.23911  0.48722  0.72196  1.0000
  C   C25       1.0  0.27442  0.48009  0.92693  1.0000
  H   H38       1.0  0.30793  0.48778  0.90597  1.0000
  H   H39       1.0  0.29103  0.48901  0.95907  1.0000
  H   H40       1.0  0.49114  0.21567  0.74230  1.0000
  H   H41       1.0  0.05723  0.47931  0.86164  1.0000
  Fe  Fe4       1.0  0.22406  0.49898  0.78920  1.0000
  C   C26       1.0  0.11058  0.44883  0.96073  1.0000
  C   C27       1.0  0.48446  0.24176  0.76361  1.0000
  H   H42       1.0  0.23604  0.50443  0.88132  1.0000
  C   C28       1.0  0.03488  0.33872  0.84842  1.0000
  C   C29       1.0  0.25158  0.51538  0.91385  1.0000
  C   C30       1.0  0.44802  0.42539  0.69675  1.0000
  N   N4        1.0  0.52249  0.34041  0.78024  1.0000
  H   H43       1.0  0.07958  0.40685  0.95629  1.0000
  H   H44       1.0  0.44219  0.23082  0.75963  1.0000
  H   H45       1.0  0.23012  0.49369  0.00152  1.0000
  H   H46       1.0  0.09436  0.47223  0.94644  1.0000
  H   H47       1.0  0.48763  0.45812  0.70245  1.0000
  H   H48       1.0  0.11584  0.45642  0.99482  1.0000
  H   H49       1.0  0.49193  0.23293  0.79568  1.0000
  C   C31       1.0  0.52272  0.29948  0.75171  1.0000
  H   H50       1.0  0.51303  0.30527  0.71920  1.0000
  H   H51       1.0  0.49899  0.29843  0.83927  1.0000
  C   C32       1.0  0.34571  0.34171  0.68204  1.0000
  H   H52       1.0  0.30605  0.30914  0.67612  1.0000
  C   C33       1.0  0.44157  0.38083  0.67492  1.0000
  H   H53       1.0  0.13718  0.75396  0.22153  1.0000
  H   H54       1.0  0.30577  0.79361  0.19027  1.0000
  H   H55       1.0  0.21605  0.82012  0.26275  1.0000
  H   H56       1.0  0.31171  0.79521  0.24590  1.0000
  C   C34       1.0  0.29076  0.76931  0.21881  1.0000
  H   H57       1.0  0.22486  0.83015  0.31725  1.0000
  H   H58       1.0  0.12990  0.75845  0.27779  1.0000
  H   H59       1.0  0.28071  0.84357  0.28658  1.0000
  H   H60       1.0  0.22062  0.77557  0.21155  1.0000
  N   N5        1.0  0.20506  0.72059  0.26239  1.0000
  C   C35       1.0  0.21800  0.67750  0.27035  1.0000
  C   C36       1.0  0.22971  0.74478  0.22106  1.0000
  C   C37       1.0  0.14533  0.69512  0.25908  1.0000
  C   C38       1.0  0.22642  0.75948  0.29829  1.0000
  H   H61       1.0  0.20693  0.65050  0.24284  1.0000
  C   C39       1.0  0.12257  0.73165  0.25088  1.0000
  C   C40       1.0  0.23732  0.81591  0.28968  1.0000
  H   H62       1.0  0.21215  0.71475  0.19557  1.0000
  H   H63       1.0  0.26155  0.69425  0.27484  1.0000
  H   H64       1.0  0.12968  0.66424  0.23415  1.0000
  H   H65       1.0  0.12610  0.67472  0.28848  1.0000
  H   H66       1.0  0.26492  0.76413  0.30955  1.0000
  H   H67       1.0  0.44371  0.67282  0.26660  1.0000
  S   S9        1.0  0.48271  0.73714  0.12839  1.0000
  C   C41       1.0  0.37284  0.75911  0.30902  1.0000
  C   C42       1.0  0.39940  0.81400  0.30854  1.0000
  C   C43       1.0  0.43481  0.84152  0.27600  1.0000
  C   C44       1.0  0.44373  0.81455  0.24348  1.0000
  C   C45       1.0  0.41605  0.75955  0.24336  1.0000
  C   C46       1.0  0.38106  0.73200  0.27619  1.0000
  H   H68       1.0  0.45585  0.88406  0.27623  1.0000
  H   H69       1.0  0.42189  0.73836  0.21812  1.0000
  H   H70       1.0  0.36031  0.68948  0.27620  1.0000
  H   H71       1.0  0.30224  0.73859  0.21630  1.0000
  Fe  Fe5       1.0  0.49411  0.76921  0.06324  1.0000
  H   H72       1.0  0.14904  0.61446  0.30333  1.0000
  H   H73       1.0  0.07859  0.70720  0.24778  1.0000
  H   H74       1.0  0.43920  0.61867  0.23755  1.0000
  C   C47       1.0  0.19183  0.64294  0.30888  1.0000
  H   H75       1.0  0.19914  0.74419  0.32549  1.0000
  H   H76       1.0  0.19665  0.66669  0.33717  1.0000
  H   H77       1.0  0.46845  0.68153  0.21376  1.0000
  S   S10       1.0  0.43065  0.73969  0.01196  1.0000
  C   C48       1.0  0.46474  0.66146  0.24386  1.0000
  H   H78       1.0  0.21152  0.61960  0.31553  1.0000
  S   S11       1.0  0.49030  0.85144  0.20429  1.0000
  H   H79       1.0  0.29624  0.57452  0.02560  1.0000
  H   H80       1.0  0.51424  0.76212  0.24776  1.0000
  H   H81       1.0  0.39338  0.83534  0.33360  1.0000
  H   H82       1.0  0.48449  0.75312  0.30977  1.0000
  Fe  Fe6       1.0  0.51853  0.82060  0.15051  1.0000
  S   S12       1.0  0.52318  0.85211  0.08585  1.0000
  C   C49       1.0  0.49567  0.73201  0.33234  1.0000
  H   H83       1.0  0.46204  0.69131  0.33617  1.0000
  C   C50       1.0  0.51962  0.67234  0.25964  1.0000
  H   H84       1.0  0.51239  0.64232  0.28370  1.0000
  Fe  Fe7       1.0  0.21036  0.78059  0.41415  1.0000
  S   S13       1.0  0.21728  0.70853  0.42083  1.0000
  S   S14       1.0  0.21509  0.68509  0.54241  1.0000
  S   S15       1.0  0.23488  0.80699  0.48086  1.0000
  C   C51       1.0  0.22545  0.63773  0.61265  1.0000
  C   C52       1.0  0.25293  0.62386  0.64159  1.0000
  H   H85       1.0  0.18404  0.62542  0.61784  1.0000
  S   S16       1.0  0.13998  0.78054  0.38197  1.0000
  H   H86       1.0  0.30508  0.78826  0.57699  1.0000
  H   H87       1.0  0.41253  0.89539  0.55732  1.0000
  C   C53       1.0  0.08170  0.72402  0.36310  1.0000
  H   H88       1.0  0.33398  0.58090  0.54249  1.0000
  Fe  Fe8       1.0  0.31881  0.85123  0.45717  1.0000
  S   S17       1.0  0.33340  0.78301  0.46534  1.0000
  S   S18       1.0  0.38708  0.92864  0.48291  1.0000
  H   H89       1.0  0.35219  0.92865  0.57439  1.0000
  Fe  Fe9       1.0  0.24835  0.73795  0.48565  1.0000
  Fe  Fe10      1.0  0.30180  0.75992  0.39962  1.0000
  S   S19       1.0  0.29378  0.83122  0.38971  1.0000
  C   C54       1.0  0.38837  0.98611  0.50221  1.0000
  S   S20       1.0  0.34362  0.62548  0.67164  1.0000
  H   H90       1.0  0.31562  0.84189  0.54648  1.0000
  C   C55       1.0  0.25114  0.66752  0.57718  1.0000
  C   C56       1.0  0.30665  0.64023  0.63552  1.0000
  C   C57       1.0  0.33235  0.66997  0.59999  1.0000
  C   C58       1.0  0.30460  0.68306  0.57070  1.0000
  H   H91       1.0  0.37392  0.68285  0.59504  1.0000
  H   H92       1.0  0.32450  0.70517  0.54317  1.0000
  C   C59       1.0  0.32667  0.78644  0.65748  1.0000
  H   H93       1.0  0.44052  0.90193  0.60792  1.0000
  N   N6        1.0  0.35440  0.86502  0.60674  1.0000
  C   C60       1.0  0.30862  0.82746  0.57921  1.0000
  C   C61       1.0  0.40616  0.87506  0.58776  1.0000
  H   H94       1.0  0.30865  0.96433  0.48350  1.0000
  C   C62       1.0  0.35453  0.91659  0.60688  1.0000
  H   H95       1.0  0.37153  0.59267  0.58904  1.0000
  C   C63       1.0  0.34474  0.99387  0.49872  1.0000
  C   C64       1.0  0.25340  0.81818  0.59217  1.0000
  H   H96       1.0  0.22203  0.78329  0.57512  1.0000
  H   H97       1.0  0.24588  0.81031  0.62595  1.0000
  H   H98       1.0  0.10803  0.66898  0.37649  1.0000
  H   H99       1.0  0.40980  0.95446  0.66022  1.0000
  C   C65       1.0  0.07636  0.67400  0.36370  1.0000
  H   H100      1.0  0.41544  0.80897  0.60937  1.0000
  H   H101      1.0  0.43926  0.97801  0.60917  1.0000
  C   C66       1.0  0.42014  0.55669  0.64219  1.0000
  H   H102      1.0  0.38174  0.79755  0.55885  1.0000
  H   H103      1.0  0.33236  0.76536  0.63125  1.0000
  H   H104      1.0  0.33524  0.51959  0.65235  1.0000
  H   H105      1.0  0.24839  0.85196  0.58340  1.0000
  C   C67       1.0  0.41288  0.82700  0.57981  1.0000
  H   H106      1.0  0.45124  0.84034  0.56356  1.0000
  H   H107      1.0  0.39082  0.57290  0.54105  1.0000
  S   S21       1.0  0.32949  0.72294  0.35010  1.0000
  C   C68       1.0  0.35716  0.56711  0.56087  1.0000
  C   C69       1.0  0.34943  0.84618  0.65118  1.0000
  H   H108      1.0  0.42073  0.52241  0.56424  1.0000
  H   H109      1.0  0.43625  0.57852  0.61298  1.0000
  H   H110      1.0  0.41970  0.58534  0.66477  1.0000
  C   C70       1.0  0.40272  0.96369  0.62815  1.0000
  H   H111      1.0  0.31872  0.91264  0.62286  1.0000
  H   H112      1.0  0.32264  0.85608  0.66900  1.0000
  H   H113      1.0  0.44849  0.54569  0.65568  1.0000
  H   H114      1.0  0.23271  0.60108  0.66882  1.0000
  H   H115      1.0  0.50139  0.75374  0.36221  1.0000
  H   H116      1.0  0.28369  0.76666  0.66524  1.0000
  C   C71       1.0  0.03996  0.72967  0.34636  1.0000
  H   H117      1.0  0.39493  0.99703  0.63047  1.0000
  H   H118      1.0  0.38865  0.86727  0.66751  1.0000
  H   H119      1.0  0.04376  0.76824  0.34562  1.0000
  C   C72       1.0  0.02992  0.63030  0.34759  1.0000
  S   S22       1.0  0.29179  0.58330  0.79155  1.0000
  Fe  Fe11      1.0  0.34106  0.54882  0.81364  1.0000
  S   S23       1.0  0.40212  0.57850  0.86653  1.0000
  Fe  Fe12      1.0  0.31015  0.56853  0.72618  1.0000
  C   C73       1.0  0.42433  0.69578  0.97129  1.0000
  C   C74       1.0  0.41056  0.62477  0.90586  1.0000
  C   C75       1.0  0.38236  0.65188  0.90527  1.0000
  C   C76       1.0  0.38903  0.68699  0.93799  1.0000
  H   H120      1.0  0.35531  0.64557  0.87971  1.0000
  H   H121      1.0  0.36671  0.70744  0.93755  1.0000
  C   C77       1.0  0.23316  0.60339  0.90778  1.0000
  S   S24       1.0  0.36577  0.54103  0.74872  1.0000
  H   H122      1.0  0.24752  0.59774  0.87714  1.0000
  H   H123      1.0  0.21503  0.62830  0.90191  1.0000
  H   H124      1.0  0.26731  0.62550  0.92914  1.0000
  C   C78       1.0  0.44643  0.63422  0.93883  1.0000
  C   C79       1.0  0.27857  0.57812  0.99584  1.0000
  H   H125      1.0  0.16910  0.55899  0.95038  1.0000
  C   C80       1.0  0.19049  0.55025  0.92562  1.0000
  H   H126      1.0  0.45825  0.78497  0.85580  1.0000
  H   H127      1.0  0.31006  0.58766  0.97263  1.0000
  C   C81       1.0  0.45345  0.66967  0.97136  1.0000
  H   H128      1.0  0.27100  0.61148  0.99897  1.0000
  H   H129      1.0  0.47197  0.79695  0.93398  1.0000
  H   H130      1.0  0.28617  0.55548  0.91106  1.0000
  H   H131      1.0  0.48100  0.88495  0.96795  1.0000
  H   H132      1.0  0.48743  0.85377  0.90478  1.0000
  H   H133      1.0  0.49663  0.75877  0.87700  1.0000
  C   C82       1.0  0.52417  0.90795  0.97530  1.0000
  C   C83       1.0  0.50180  0.82598  0.91214  1.0000
  C   C84       1.0  0.49701  0.79619  0.87100  1.0000
  H   H134      1.0  0.52887  0.82046  0.84863  1.0000
  H   H135      1.0  0.48077  0.67612  0.99678  1.0000
  H   H136      1.0  0.46857  0.61357  0.93942  1.0000
  H   H137      1.0  0.52434  0.83817  0.99482  1.0000
  C   C85       1.0  0.22669  0.52607  0.98669  1.0000
  H   H138      1.0  0.16097  0.53115  0.89980  1.0000
  H   H139      1.0  0.19564  0.52796  0.00565  1.0000
  H   H140      1.0  0.34633  0.78042  0.68501  1.0000
  H   H141      1.0  0.52737  0.92425  0.00722  1.0000
  H   H142      1.0  0.69336  0.19727  0.15508  1.0000
  S   S25       1.0  0.72615  0.43826  0.17554  1.0000
  H   H143      1.0  0.64295  0.12206  0.11879  1.0000
  H   H144      1.0  0.77687  0.25269  0.20222  1.0000
  S   S26       1.0  0.78248  0.48413  0.29319  1.0000
  S   S27       1.0  0.85871  0.38741  0.04409  1.0000
  H   H145      1.0  0.84273  0.28929  0.17920  1.0000
  H   H146      1.0  0.80729  0.31946  0.12187  1.0000
  H   H147      1.0  0.66893  0.24465  0.04624  1.0000
  H   H148      1.0  0.69157  0.13841  0.07922  1.0000
  C   C86       1.0  0.76425  0.42705  0.13813  1.0000
  C   C87       1.0  0.73822  0.39415  0.10361  1.0000
  C   C88       1.0  0.76686  0.38321  0.07363  1.0000
  C   C89       1.0  0.82176  0.40443  0.07832  1.0000
  C   C90       1.0  0.84784  0.43772  0.11262  1.0000
  C   C91       1.0  0.81932  0.44927  0.14229  1.0000
  H   H149      1.0  0.69562  0.37692  0.10011  1.0000
  H   H150      1.0  0.74638  0.35786  0.04722  1.0000
  H   H151      1.0  0.89030  0.45415  0.11657  1.0000
  H   H152      1.0  0.84037  0.18909  0.06880  1.0000
  N   N7        1.0  0.75999  0.23500  0.11301  1.0000
  C   C92       1.0  0.80079  0.18354  0.07726  1.0000
  C   C93       1.0  0.73653  0.24264  0.07335  1.0000
  H   H153      1.0  0.77913  0.17774  0.04749  1.0000
  C   C94       1.0  0.72093  0.18795  0.13774  1.0000
  H   H154      1.0  0.65150  0.20405  0.09110  1.0000
  C   C95       1.0  0.68295  0.24140  0.07782  1.0000
  H   H155      1.0  0.69312  0.10451  0.12461  1.0000
  C   C96       1.0  0.68573  0.13601  0.11328  1.0000
  H   H156      1.0  0.68655  0.27492  0.09643  1.0000
  H   H157      1.0  0.73050  0.21344  0.04903  1.0000
  H   H158      1.0  0.76510  0.28072  0.05870  1.0000
  H   H159      1.0  0.83981  0.47453  0.16878  1.0000
  C   C97       1.0  0.80323  0.28620  0.18210  1.0000
  H   H160      1.0  0.78094  0.14722  0.09604  1.0000
  H   H161      1.0  0.83762  0.26768  0.08472  1.0000
  C   C98       1.0  0.80906  0.23203  0.10241  1.0000
  H   H162      1.0  0.83042  0.23179  0.13111  1.0000
  C   C99       1.0  0.77780  0.28413  0.13919  1.0000
  H   H163      1.0  0.74228  0.17885  0.16231  1.0000
  H   H164      1.0  0.74401  0.29067  0.14592  1.0000
  H   H165      1.0  0.81032  0.32249  0.19879  1.0000
  H   H166      1.0  0.63820  0.49614  0.12326  1.0000
  C   C100      1.0  0.71971  0.49870  0.06712  1.0000
  Fe  Fe13      1.0  0.76074  0.49807  0.22888  1.0000
  C   C101      1.0  0.63992  0.04490  0.02210  1.0000
  H   H167      1.0  0.64418  0.51478  0.17662  1.0000
  H   H168      1.0  0.60596  0.05062  0.02434  1.0000
  H   H169      1.0  0.69927  0.47403  0.03923  1.0000
  H   H170      1.0  0.69958  0.47473  0.09488  1.0000
  H   H171      1.0  0.76139  0.50688  0.06648  1.0000
  C   C102      1.0  0.72700  0.02962  0.01687  1.0000
  H   H172      1.0  0.76083  0.02371  0.01449  1.0000
  Fe  Fe14      1.0  0.55644  0.24616  0.65111  1.0000
  H   H173      1.0  0.60546  0.27072  0.43605  1.0000
  S   S28       1.0  0.59315  0.33021  0.63160  1.0000
  Fe  Fe15      1.0  0.58096  0.29985  0.56542  1.0000
  S   S29       1.0  0.64425  0.32966  0.51470  1.0000
  H   H174      1.0  0.80094  0.45026  0.42743  1.0000
  C   C103      1.0  0.66436  0.44328  0.40893  1.0000
  C   C104      1.0  0.69214  0.41580  0.40845  1.0000
  C   C105      1.0  0.68569  0.38133  0.44120  1.0000
  C   C106      1.0  0.65058  0.37315  0.47419  1.0000
  C   C107      1.0  0.62163  0.39946  0.47404  1.0000
  C   C108      1.0  0.62873  0.43453  0.44163  1.0000
  H   H175      1.0  0.71906  0.42164  0.38310  1.0000
  H   H176      1.0  0.70791  0.36077  0.44093  1.0000
  H   H177      1.0  0.59447  0.39348  0.49924  1.0000
  H   H178      1.0  0.77657  0.50950  0.43555  1.0000
  S   S30       1.0  0.67373  0.48982  0.37017  1.0000
  S   S31       1.0  0.55112  0.21627  0.58545  1.0000
  H   H179      1.0  0.84711  0.46038  0.46996  1.0000
  H   H180      1.0  0.85739  0.44318  0.41888  1.0000
  C   C109      1.0  0.57513  0.24279  0.41343  1.0000
  H   H181      1.0  0.60690  0.45550  0.44213  1.0000
  H   H182      1.0  0.58805  0.21399  0.40533  1.0000
  C   C110      1.0  0.84314  0.46655  0.43632  1.0000
  H   H183      1.0  0.61972  0.28392  0.35820  1.0000
  C   C111      1.0  0.54932  0.15874  0.47443  1.0000
  H   H184      1.0  0.59249  0.18033  0.46747  1.0000
  H   H185      1.0  0.54556  0.14187  0.50599  1.0000
  H   H186      1.0  0.82686  0.51104  0.54190  1.0000
  C   C112      1.0  0.58125  0.27378  0.37309  1.0000
  H   H187      1.0  0.55247  0.22979  0.49562  1.0000
  H   H188      1.0  0.78935  0.48440  0.49538  1.0000
  H   H189      1.0  0.58318  0.31181  0.38008  1.0000
  H   H190      1.0  0.54915  0.25077  0.35008  1.0000
  H   H191      1.0  0.53341  0.28907  0.45934  1.0000
  Fe  Fe16      1.0  0.82573  0.33242  0.98773  1.0000
  S   S32       1.0  0.83982  0.26367  0.98470  1.0000
  Fe  Fe17      1.0  0.77421  0.30820  0.90041  1.0000
  S   S33       1.0  0.78319  0.23720  0.89194  1.0000
  S   S34       1.0  0.74726  0.34376  0.84959  1.0000
  Fe  Fe18      1.0  0.75647  0.21825  0.95878  1.0000
  H   H192      1.0  0.56256  0.30347  0.74923  1.0000
  Fe  Fe19      1.0  0.86604  0.28889  0.91837  1.0000
  S   S35       1.0  0.93756  0.28989  0.88748  1.0000
  S   S36       1.0  0.74112  0.28633  0.96533  1.0000
  S   S37       1.0  0.85817  0.36057  0.92350  1.0000
  H   H193      1.0  0.98289  0.41731  0.78500  1.0000
  C   C113      1.0  0.99627  0.34589  0.86919  1.0000
  C   C114      1.0  0.82408  0.30879  0.74446  1.0000
  H   H194      1.0  0.57806  0.30802  0.86363  1.0000
  H   H195      1.0  0.97595  0.40325  0.89035  1.0000
  H   H196      1.0  0.84372  0.32456  0.82582  1.0000
  C   C115      1.0  0.70382  0.30681  0.80822  1.0000
  C   C116      1.0  0.67561  0.25190  0.80840  1.0000
  C   C117      1.0  0.63938  0.22389  0.77591  1.0000
  C   C118      1.0  0.63126  0.25042  0.74287  1.0000
  C   C119      1.0  0.66065  0.30536  0.74206  1.0000
  C   C120      1.0  0.69660  0.33341  0.77474  1.0000
  H   H197      1.0  0.68084  0.23100  0.83400  1.0000
  H   H198      1.0  0.61699  0.18139  0.77666  1.0000
  H   H199      1.0  0.65539  0.32614  0.71643  1.0000
  H   H200      1.0  0.71870  0.37591  0.77423  1.0000
  H   H201      1.0  0.61033  0.38440  0.71789  1.0000
  S   S38       1.0  0.68792  0.14030  0.98253  1.0000
  H   H202      1.0  0.86693  0.21209  0.79243  1.0000
  C   C121      1.0  0.58408  0.33095  0.83469  1.0000
  H   H203      1.0  0.93177  0.30539  0.78593  1.0000
  H   H204      1.0  0.54436  0.40649  0.73908  1.0000
  H   H205      1.0  0.84020  0.40139  0.79584  1.0000
  H   H206      1.0  0.63609  0.39126  0.77051  1.0000
  C   C122      1.0  0.81184  0.34408  0.71642  1.0000
  H   H207      1.0  0.87659  0.41622  0.84317  1.0000
  C   C123      1.0  0.97826  0.40117  0.75295  1.0000
  H   H208      1.0  0.91248  0.43910  0.79592  1.0000
  H   H209      1.0  0.91161  0.40738  0.73164  1.0000
  H   H210      1.0  0.81668  0.27513  0.72371  1.0000
  C   C124      1.0  0.00497  0.39696  0.87416  1.0000
  N   N8        1.0  0.87885  0.33313  0.76456  1.0000
  C   C125      1.0  0.92016  0.37501  0.73696  1.0000
  H   H211      1.0  0.81254  0.22172  0.77911  1.0000
  H   H212      1.0  0.91379  0.36053  0.82592  1.0000
  C   C126      1.0  0.85312  0.24119  0.79287  1.0000
  H   H213      1.0  0.85154  0.25078  0.82601  1.0000
  C   C127      1.0  0.87690  0.40562  0.80989  1.0000
  H   H214      1.0  0.89880  0.27723  0.73764  1.0000
  S   S39       1.0  0.58345  0.21323  0.70387  1.0000
  H   H215      1.0  0.79220  0.29155  0.76848  1.0000
  H   H216      1.0  0.91913  0.35832  0.70538  1.0000
  C   C128      1.0  0.87838  0.35400  0.80765  1.0000
  C   C129      1.0  0.61552  0.40414  0.74864  1.0000
  C   C130      1.0  0.89326  0.29056  0.76894  1.0000
  H   H217      1.0  0.64221  0.44684  0.74336  1.0000
  H   H218      1.0  0.61899  0.37084  0.83959  1.0000
  H   H219      1.0  0.99428  0.37391  0.75170  1.0000
  H   H220      1.0  0.81921  0.38079  0.73191  1.0000
  H   H221      1.0  0.00395  0.43471  0.73243  1.0000
  H   H222      1.0  0.76898  0.32214  0.70759  1.0000
  H   H223      1.0  0.59349  0.30962  0.81083  1.0000
  H   H224      1.0  0.83469  0.35364  0.68692  1.0000
  H   H225      1.0  0.76663  0.10500  0.98586  1.0000
  C   C131      1.0  0.56177  0.39502  0.76523  1.0000
  C   C132      1.0  0.53329  0.33358  0.82520  1.0000
  H   H226      1.0  0.57077  0.42476  0.79035  1.0000
  C   C133      1.0  0.73041  0.07577  0.00059  1.0000
  C   C134      1.0  0.68668  0.08350  0.00290  1.0000
  H   H227      1.0  0.53665  0.36660  0.84467  1.0000
  H   H228      1.0  0.02871  0.29942  0.84454  1.0000
  S   S40       1.0  0.83120  0.57946  0.22369  1.0000
  S   S41       1.0  0.80274  0.60212  0.31835  1.0000
  Fe  Fe20      1.0  0.77775  0.60660  0.25238  1.0000
  S   S42       1.0  0.77668  0.67915  0.22792  1.0000
  Fe  Fe21      1.0  0.85012  0.56829  0.28997  1.0000
  H   H229      1.0  0.73262  0.58970  0.16863  1.0000
  Fe  Fe22      1.0  0.56769  0.75430  0.12385  1.0000
  S   S43       1.0  0.57834  0.68746  0.14935  1.0000
  Fe  Fe23      1.0  0.60464  0.86180  0.08297  1.0000
  C   C135      1.0  0.61356  0.73615  0.27227  1.0000
  S   S44       1.0  0.60305  0.83660  0.14960  1.0000
  S   S45       1.0  0.57603  0.78017  0.05672  1.0000
  S   S46       1.0  0.67707  0.93257  0.05451  1.0000
  H   H230      1.0  0.82063  0.64868  0.16231  1.0000
  H   H231      1.0  0.80716  0.57258  0.11473  1.0000
  H   H232      1.0  0.63436  0.83790  0.25760  1.0000
  H   H233      1.0  0.59975  0.65490  0.27613  1.0000
  H   H234      1.0  0.83906  0.68965  0.11661  1.0000
  C   C136      1.0  0.72104  0.68096  0.20654  1.0000
  C   C137      1.0  0.72835  0.72808  0.18932  1.0000
  C   C138      1.0  0.68537  0.73088  0.17134  1.0000
  C   C139      1.0  0.63453  0.68640  0.17034  1.0000
  C   C140      1.0  0.62726  0.63933  0.18758  1.0000
  C   C141      1.0  0.67013  0.63664  0.20575  1.0000
  H   H235      1.0  0.76756  0.76267  0.18985  1.0000
  H   H236      1.0  0.69159  0.76743  0.15833  1.0000
  H   H237      1.0  0.58804  0.60476  0.18721  1.0000
  H   H238      1.0  0.66370  0.60034  0.21935  1.0000
  H   H239      1.0  0.87654  0.65931  0.13202  1.0000
  H   H240      1.0  0.53728  0.66254  0.23260  1.0000
  C   C142      1.0  0.71796  0.56047  0.14262  1.0000
  C   C143      1.0  0.73266  0.63261  0.09676  1.0000
  H   H241      1.0  0.58496  0.83325  0.29494  1.0000
  Fe  Fe24      1.0  0.73413  0.51874  0.31745  1.0000
  N   N9        1.0  0.74199  0.58686  0.10181  1.0000
  C   C144      1.0  0.59186  0.82543  0.26233  1.0000
  H   H242      1.0  0.60098  0.97041  0.05426  1.0000
  C   C145      1.0  0.99311  0.68580  0.33083  1.0000
  H   H243      1.0  0.96117  0.69071  0.31842  1.0000
  S   S47       1.0  0.92935  0.57875  0.31362  1.0000
  H   H244      1.0  0.58128  0.76792  0.33611  1.0000
  H   H245      1.0  0.68938  0.61894  0.09583  1.0000
  S   S48       1.0  0.70636  0.52598  0.25352  1.0000
  H   H246      1.0  0.62532  0.73961  0.23887  1.0000
  H   H247      1.0  0.58333  0.85107  0.24225  1.0000
  C   C146      1.0  0.83569  0.65342  0.13008  1.0000
  C   C147      1.0  0.75579  0.66565  0.05695  1.0000
  C   C148      1.0  0.80062  0.60455  0.10288  1.0000
  H   H248      1.0  0.61667  0.69017  0.32569  1.0000
  H   H249      1.0  0.74689  0.65935  0.12452  1.0000
  C   C149      1.0  0.63681  0.99920  0.03889  1.0000
  H   H250      1.0  0.81790  0.61254  0.07099  1.0000
  H   H251      1.0  0.76779  0.70728  0.06389  1.0000
  H   H252      1.0  0.64301  0.77405  0.28721  1.0000
  N   N10       1.0  0.55767  0.72706  0.27599  1.0000
  H   H253      1.0  0.56368  0.76282  0.21621  1.0000
  C   C150      1.0  0.68014  0.99096  0.03594  1.0000
  C   C151      1.0  0.54755  0.73226  0.32146  1.0000
  H   H254      1.0  0.63949  0.55623  0.13869  1.0000
  H   H255      1.0  0.79200  0.66626  0.04554  1.0000
  C   C152      1.0  0.55477  0.76760  0.24921  1.0000
  H   H256      1.0  0.73565  0.56916  0.03563  1.0000
  C   C153      1.0  0.62365  0.69381  0.29158  1.0000
  H   H257      1.0  0.72568  0.65081  0.03138  1.0000
  H   H258      1.0  0.66606  0.70544  0.28675  1.0000
  C   C154      1.0  0.71662  0.54963  0.06544  1.0000
  C   C155      1.0  0.98785  0.63582  0.33144  1.0000
  H   H259      1.0  0.73110  0.53215  0.15120  1.0000
  H   H260      1.0  0.54636  0.69956  0.33964  1.0000
  H   H261      1.0  0.67411  0.53856  0.06170  1.0000
  C   C156      1.0  0.65654  0.53056  0.14468  1.0000
  C   C157      1.0  0.87781  0.52469  0.42450  1.0000
  H   H262      1.0  0.80723  0.62258  0.41648  1.0000
  H   H263      1.0  0.96544  0.63927  0.47342  1.0000
  H   H264      1.0  0.79578  0.59985  0.46992  1.0000
  C   C158      1.0  0.78847  0.58741  0.43673  1.0000
  H   H265      1.0  0.89881  0.56024  0.50055  1.0000
  H   H266      1.0  0.98366  0.67988  0.42835  1.0000
  H   H267      1.0  0.89117  0.64644  0.43739  1.0000
  H   H268      1.0  0.78892  0.53830  0.52261  1.0000
  C   C159      1.0  0.90124  0.61658  0.42621  1.0000
  H   H269      1.0  0.87113  0.60231  0.50124  1.0000
  H   H270      1.0  0.80711  0.54515  0.39068  1.0000
  N   N11       1.0  0.86198  0.56255  0.44228  1.0000
  C   C160      1.0  0.80789  0.54866  0.42535  1.0000
  H   H271      1.0  0.89956  0.61733  0.39142  1.0000
  C   C161      1.0  0.96002  0.63858  0.43912  1.0000
  H   H272      1.0  0.74490  0.56820  0.43108  1.0000
  H   H273      1.0  0.87859  0.52646  0.38973  1.0000
  C   C162      1.0  0.86421  0.56358  0.48943  1.0000
  H   H274      1.0  0.91869  0.53539  0.43448  1.0000
  C   C163      1.0  0.81413  0.52168  0.51255  1.0000
  H   H275      1.0  0.97777  0.61704  0.42394  1.0000
  H   H276      1.0  0.02621  0.59178  0.34828  1.0000
  C   C164      1.0  0.63038  0.83582  0.95738  1.0000
  C   C165      1.0  0.59333  0.89941  0.90478  1.0000
  H   H277      1.0  0.65776  0.93617  0.95418  1.0000
  H   H278      1.0  0.57134  0.91721  0.88993  1.0000
  H   H279      1.0  0.58755  0.89404  0.99247  1.0000
  H   H280      1.0  0.63501  0.97863  0.93350  1.0000
  H   H281      1.0  0.57724  0.79845  0.90710  1.0000
  H   H282      1.0  0.67601  0.96276  0.90348  1.0000
  C   C166      1.0  0.57499  0.81524  0.93769  1.0000
  C   C167      1.0  0.64263  0.94599  0.92601  1.0000
  H   H283      1.0  0.63690  0.80207  0.96250  1.0000
  H   H284      1.0  0.66230  0.86310  0.93618  1.0000
  H   H285      1.0  0.60773  0.88469  0.87866  1.0000
  H   H286      1.0  0.63454  0.85452  0.98825  1.0000
  H   H287      1.0  0.54587  0.78134  0.95671  1.0000
  N   N12       1.0  0.55630  0.85449  0.93245  1.0000
  C   C168      1.0  0.54959  0.87268  0.97498  1.0000
  H   H288      1.0  0.54421  0.94152  0.95370  1.0000
