data_image0
_chemical_formula_structural       H2NHCH5C2HCHSFeHCH2CH3CHCSHSFeHCSH2C2H2CH4NHCH3CSH2CHCFeCSCH2C2HS2HC2H2SHFeHSHFeC3H2SNCHFeSC2H4CNHSH3CH2CSC2H2CH5CHFeSCHCSCHSHFe2H2CSHC2HCSFeHCH2C2HSH3NC3H5SCFeHSHCH2CHNCH2C2H2C2HFeC2SC2HSHSH4CNCH5CHSH3SFeHCH2C3FeSCSNC3H2CHSC2SFe2H3SH2CHCHCH2NH3CH6CSHCH3CHC2S2HFeHSHCFeCHCHCHCH2FeC2HSH2CHCNC2H2C4HSNH3C2SH6CH2FeH2CHCHSFeCSC2HSC2H2SCH5C3HNCH4S2C2H4Fe2HFeCH2S2C3HCSH4
_chemical_formula_sum              "H192 N12 C120 S48 Fe24"
_cell_length_a       19.586
_cell_length_b       17.7319
_cell_length_c       20.5725
_cell_angle_alpha    62.3898
_cell_angle_beta     112.581
_cell_angle_gamma    117.294

_space_group_name_H-M_alt    "P 1"
_space_group_IT_number       1

loop_
  _space_group_symop_operation_xyz
  'x, y, z'

loop_
  _atom_site_type_symbol
  _atom_site_label
  _atom_site_symmetry_multiplicity
  _atom_site_fract_x
  _atom_site_fract_y
  _atom_site_fract_z
  _atom_site_occupancy
  H   H1        1.0  0.51318  0.09068  0.22761  1.0000
  H   H2        1.0  0.52023  0.14757  0.13062  1.0000
  N   N1        1.0  0.62891  0.13581  0.20926  1.0000
  H   H3        1.0  0.67332  0.03782  0.22178  1.0000
  C   C1        1.0  0.61647  0.04868  0.20605  1.0000
  H   H4        1.0  0.74699  0.70447  0.19130  1.0000
  H   H5        1.0  0.91562  0.16220  0.24619  1.0000
  H   H6        1.0  0.58709  0.04616  0.14842  1.0000
  H   H7        1.0  0.78571  0.76755  0.25299  1.0000
  H   H8        1.0  0.57944  0.99022  0.24542  1.0000
  C   C2        1.0  0.55205  0.14674  0.18889  1.0000
  C   C3        1.0  0.73038  0.72557  0.22476  1.0000
  H   H9        1.0  0.69479  0.76970  0.18484  1.0000
  C   C4        1.0  0.66730  0.90455  0.41560  1.0000
  H   H10       1.0  0.63440  0.08030  0.32824  1.0000
  S   S1        1.0  0.80026  0.97046  0.36287  1.0000
  Fe  Fe1       1.0  0.89488  0.91070  0.43890  1.0000
  H   H11       1.0  0.64056  0.86152  0.38219  1.0000
  C   C5        1.0  0.66931  0.13684  0.28625  1.0000
  H   H12       1.0  0.71438  0.71957  0.35137  1.0000
  H   H13       1.0  0.72783  0.12954  0.30312  1.0000
  C   C6        1.0  0.74567  0.96300  0.41706  1.0000
  H   H14       1.0  0.48316  0.17991  0.37324  1.0000
  H   H15       1.0  0.62339  0.71713  0.28252  1.0000
  H   H16       1.0  0.78504  0.85525  0.57226  1.0000
  C   C7        1.0  0.73635  0.01511  0.50205  1.0000
  H   H17       1.0  0.79708  0.74841  0.60469  1.0000
  C   C8        1.0  0.65795  0.95727  0.50078  1.0000
  S   S2        1.0  0.60401  0.95759  0.55193  1.0000
  H   H18       1.0  0.76396  0.05782  0.53534  1.0000
  S   S3        1.0  0.86448  0.76188  0.47011  1.0000
  Fe  Fe2       1.0  0.66561  0.09367  0.56393  1.0000
  H   H19       1.0  0.70055  0.75519  0.57146  1.0000
  C   C9        1.0  0.76066  0.78195  0.60399  1.0000
  S   S4        1.0  0.62189  0.17136  0.58950  1.0000
  H   H20       1.0  0.84062  0.06343  0.46169  1.0000
  H   H21       1.0  0.48281  0.05564  0.49657  1.0000
  C   C10       1.0  0.62363  0.90095  0.45820  1.0000
  C   C11       1.0  0.78021  0.01785  0.46061  1.0000
  H   H22       1.0  0.56316  0.85560  0.45730  1.0000
  H   H23       1.0  0.45292  0.18918  0.47519  1.0000
  C   C12       1.0  0.70404  0.80290  0.67749  1.0000
  H   H24       1.0  0.69801  0.78620  0.73461  1.0000
  H   H25       1.0  0.59683  0.90274  0.74101  1.0000
  H   H26       1.0  0.73860  0.93973  0.75271  1.0000
  H   H27       1.0  0.88282  0.78435  0.72310  1.0000
  N   N2        1.0  0.75958  0.76573  0.68087  1.0000
  H   H28       1.0  0.51265  0.11925  0.74269  1.0000
  C   C13       1.0  0.55972  0.18508  0.74423  1.0000
  H   H29       1.0  0.60815  0.19327  0.72332  1.0000
  H   H30       1.0  0.64443  0.77613  0.64391  1.0000
  H   H31       1.0  0.84028  0.79939  0.77697  1.0000
  C   C14       1.0  0.83921  0.81082  0.71887  1.0000
  S   S5        1.0  0.78713  0.13850  0.63296  1.0000
  H   H32       1.0  0.85978  0.88517  0.68821  1.0000
  H   H33       1.0  0.72455  0.87792  0.65110  1.0000
  C   C15       1.0  0.64780  0.79320  0.92910  1.0000
  H   H34       1.0  0.74718  0.98194  0.93672  1.0000
  C   C16       1.0  0.77898  0.05569  0.91218  1.0000
  Fe  Fe3       1.0  0.48431  0.81897  0.93813  1.0000
  C   C17       1.0  0.63340  0.87832  0.79544  1.0000
  S   S6        1.0  0.48374  0.95863  0.90135  1.0000
  C   C18       1.0  0.60039  0.82414  0.85889  1.0000
  H   H35       1.0  0.58385  0.18019  0.80412  1.0000
  H   H36       1.0  0.74462  0.09239  0.91059  1.0000
  C   C19       1.0  0.72732  0.81252  0.93530  1.0000
  C   C20       1.0  0.71360  0.89962  0.80207  1.0000
  H   H37       1.0  0.90487  0.05005  0.89511  1.0000
  S   S7        1.0  0.85410  0.87179  0.87739  1.0000
  S   S8        1.0  0.49925  0.79076  0.85025  1.0000
  H   H38       1.0  0.77777  0.07063  0.85294  1.0000
  C   C21       1.0  0.75972  0.86376  0.87152  1.0000
  C   C22       1.0  0.89917  0.18204  0.92292  1.0000
  H   H39       1.0  0.56318  0.69857  0.78859  1.0000
  H   H40       1.0  0.62236  0.75059  0.97810  1.0000
  S   S9        1.0  0.67336  0.05743  0.04798  1.0000
  H   H41       1.0  0.92001  0.07533  0.06965  1.0000
  Fe  Fe4       1.0  0.45765  0.76500  0.09301  1.0000
  H   H42       1.0  0.82834  0.09534  0.03804  1.0000
  S   S10       1.0  0.56593  0.82123  0.04938  1.0000
  H   H43       1.0  0.82799  0.98486  0.06014  1.0000
  Fe  Fe5       1.0  0.55724  0.95608  0.01650  1.0000
  C   C23       1.0  0.60784  0.18835  0.95227  1.0000
  C   C24       1.0  0.85935  0.05867  0.03454  1.0000
  C   C25       1.0  0.67668  0.16907  0.99634  1.0000
  H   H44       1.0  0.87951  0.96112  0.98063  1.0000
  H   H45       1.0  0.76309  0.78533  0.98924  1.0000
  S   S11       1.0  0.45237  0.90045  0.06564  1.0000
  N   N3        1.0  0.86058  0.08305  0.95581  1.0000
  C   C26       1.0  0.90504  0.03592  0.95381  1.0000
  H   H46       1.0  0.55178  0.13391  0.94979  1.0000
  Fe  Fe6       1.0  0.85701  0.73161  0.95011  1.0000
  S   S12       1.0  0.44937  0.66930  0.21078  1.0000
  C   C27       1.0  0.61512  0.59018  0.24086  1.0000
  C   C28       1.0  0.55401  0.39830  0.13690  1.0000
  H   H47       1.0  0.57647  0.62986  0.19891  1.0000
  H   H48       1.0  0.55114  0.41267  0.18132  1.0000
  H   H49       1.0  0.69322  0.27729  0.16070  1.0000
  H   H50       1.0  0.63048  0.56360  0.21078  1.0000
  C   C29       1.0  0.62615  0.43054  0.11738  1.0000
  N   N4        1.0  0.68625  0.64600  0.28017  1.0000
  H   H51       1.0  0.55952  0.21160  0.19128  1.0000
  S   S13       1.0  0.71356  0.49837  0.16063  1.0000
  H   H52       1.0  0.87237  0.54316  0.25790  1.0000
  H   H53       1.0  0.91146  0.49612  0.22541  1.0000
  H   H54       1.0  0.43451  0.56829  0.12606  1.0000
  C   C30       1.0  0.67793  0.21114  0.15589  1.0000
  H   H55       1.0  0.73391  0.20154  0.16596  1.0000
  H   H56       1.0  0.57924  0.53081  0.28089  1.0000
  C   C31       1.0  0.90772  0.49942  0.27660  1.0000
  S   S14       1.0  0.57586  0.36091  0.41246  1.0000
  C   C32       1.0  0.66253  0.67675  0.32127  1.0000
  C   C33       1.0  0.73704  0.59160  0.33353  1.0000
  H   H57       1.0  0.70572  0.53079  0.37594  1.0000
  H   H58       1.0  0.87411  0.42996  0.31001  1.0000
  C   C34       1.0  0.50894  0.44662  0.43828  1.0000
  H   H59       1.0  0.79134  0.63156  0.36430  1.0000
  H   H60       1.0  0.45680  0.41897  0.40079  1.0000
  H   H61       1.0  0.75533  0.56714  0.30396  1.0000
  H   H62       1.0  0.62909  0.61842  0.36355  1.0000
  H   H63       1.0  0.67908  0.20124  0.29106  1.0000
  C   C35       1.0  0.64355  0.46135  0.50519  1.0000
  H   H64       1.0  0.55212  0.28446  0.59561  1.0000
  Fe  Fe7       1.0  0.81190  0.25104  0.52488  1.0000
  S   S15       1.0  0.57241  0.59579  0.56613  1.0000
  C   C36       1.0  0.64287  0.51485  0.53803  1.0000
  H   H65       1.0  0.47689  0.32321  0.58412  1.0000
  C   C37       1.0  0.50769  0.49884  0.47188  1.0000
  S   S16       1.0  0.78141  0.34566  0.54293  1.0000
  C   C38       1.0  0.57472  0.53340  0.52162  1.0000
  H   H66       1.0  0.69492  0.54101  0.57675  1.0000
  S   S17       1.0  0.92009  0.27899  0.49348  1.0000
  H   H67       1.0  0.69643  0.44780  0.51827  1.0000
  Fe  Fe8       1.0  0.65856  0.28463  0.48572  1.0000
  Fe  Fe9       1.0  0.45350  0.60844  0.52691  1.0000
  H   H68       1.0  0.45705  0.20413  0.61256  1.0000
  H   H69       1.0  0.45432  0.51122  0.45965  1.0000
  C   C39       1.0  0.57664  0.42767  0.45474  1.0000
  S   S18       1.0  0.69235  0.20304  0.45496  1.0000
  H   H70       1.0  0.88067  0.40101  0.65820  1.0000
  C   C40       1.0  0.73448  0.66741  0.72357  1.0000
  C   C41       1.0  0.83913  0.49545  0.76922  1.0000
  H   H71       1.0  0.44173  0.30457  0.69499  1.0000
  C   C42       1.0  0.46340  0.24619  0.72611  1.0000
  S   S19       1.0  0.77339  0.25222  0.75301  1.0000
  Fe  Fe10      1.0  0.74704  0.22895  0.64653  1.0000
  H   H72       1.0  0.53863  0.64237  0.72489  1.0000
  C   C43       1.0  0.81927  0.36821  0.74002  1.0000
  H   H73       1.0  0.61772  0.34389  0.76440  1.0000
  H   H74       1.0  0.77306  0.63617  0.72491  1.0000
  C   C44       1.0  0.59405  0.34673  0.70519  1.0000
  C   C45       1.0  0.88130  0.55517  0.71243  1.0000
  H   H75       1.0  0.64459  0.36096  0.68371  1.0000
  S   S20       1.0  0.91902  0.67168  0.69608  1.0000
  H   H76       1.0  0.67355  0.63156  0.69819  1.0000
  H   H77       1.0  0.45679  0.48120  0.75451  1.0000
  H   H78       1.0  0.57369  0.40598  0.67297  1.0000
  N   N5        1.0  0.53001  0.26163  0.69882  1.0000
  C   C46       1.0  0.86553  0.42740  0.68644  1.0000
  C   C47       1.0  0.89477  0.52111  0.67109  1.0000
  C   C48       1.0  0.50270  0.26848  0.61927  1.0000
  H   H79       1.0  0.92921  0.56659  0.62861  1.0000
  H   H80       1.0  0.90479  0.20256  0.86469  1.0000
  H   H81       1.0  0.51181  0.61380  0.90591  1.0000
  H   H82       1.0  0.52114  0.45195  0.84530  1.0000
  H   H83       1.0  0.55707  0.53374  0.93084  1.0000
  S   S21       1.0  0.68774  0.46165  0.86794  1.0000
  C   C49       1.0  0.61142  0.27863  0.91282  1.0000
  Fe  Fe11      1.0  0.78254  0.54284  0.93793  1.0000
  H   H84       1.0  0.55815  0.29422  0.88083  1.0000
  S   S22       1.0  0.89589  0.65681  0.91607  1.0000
  H   H85       1.0  0.45402  0.49538  0.92796  1.0000
  C   C50       1.0  0.68363  0.34916  0.91700  1.0000
  H   H86       1.0  0.60521  0.61450  0.81434  1.0000
  H   H87       1.0  0.83053  0.52095  0.80306  1.0000
  C   C51       1.0  0.46935  0.47482  0.81403  1.0000
  H   H88       1.0  0.77278  0.35675  0.82453  1.0000
  N   N6        1.0  0.48383  0.56125  0.81973  1.0000
  C   C52       1.0  0.50241  0.55051  0.89961  1.0000
  H   H89       1.0  0.86516  0.22024  0.91953  1.0000
  H   H90       1.0  0.48058  0.23644  0.78679  1.0000
  C   C53       1.0  0.80731  0.40227  0.78227  1.0000
  C   C54       1.0  0.55080  0.63245  0.78529  1.0000
  H   H91       1.0  0.73657  0.65294  0.78280  1.0000
  H   H92       1.0  0.56391  0.34841  0.97675  1.0000
  C   C55       1.0  0.62854  0.41068  0.06026  1.0000
  C   C56       1.0  0.75227  0.32961  0.96133  1.0000
  H   H93       1.0  0.68234  0.43408  0.04411  1.0000
  Fe  Fe12      1.0  0.79423  0.56341  0.08121  1.0000
  C   C57       1.0  0.48481  0.34962  0.09683  1.0000
  C   C58       1.0  0.56069  0.36126  0.02171  1.0000
  S   S23       1.0  0.83254  0.47783  0.05938  1.0000
  C   C59       1.0  0.48857  0.33253  0.03835  1.0000
  C   C60       1.0  0.74880  0.23956  0.00119  1.0000
  H   H94       1.0  0.80207  0.22479  0.03527  1.0000
  S   S24       1.0  0.90961  0.67889  0.07358  1.0000
  H   H95       1.0  0.80839  0.38392  0.96318  1.0000
  S   S25       1.0  0.73976  0.62277  0.96064  1.0000
  H   H96       1.0  0.64669  0.21665  0.09668  1.0000
  H   H97       1.0  0.13349  0.72407  0.13399  1.0000
  H   H98       1.0  0.00460  0.10228  0.23809  1.0000
  H   H99       1.0  0.06520  0.86356  0.23042  1.0000
  C   C61       1.0  0.33004  0.79240  0.20739  1.0000
  N   N7        1.0  0.25466  0.73217  0.17670  1.0000
  C   C62       1.0  0.05455  0.16470  0.24401  1.0000
  H   H100      1.0  0.20618  0.90387  0.23634  1.0000
  H   H101      1.0  0.32871  0.79171  0.26105  1.0000
  H   H102      1.0  0.34339  0.86374  0.16778  1.0000
  H   H103      1.0  0.18324  0.75967  0.21448  1.0000
  H   H104      1.0  0.09791  0.17899  0.21389  1.0000
  C   C63       1.0  0.19063  0.76401  0.16179  1.0000
  H   H105      1.0  0.37993  0.77075  0.21929  1.0000
  S   S26       1.0  0.27098  0.14062  0.12246  1.0000
  H   H106      1.0  0.30472  0.70552  0.11658  1.0000
  H   H107      1.0  0.20336  0.83588  0.12435  1.0000
  H   H108      1.0  0.08473  0.14972  0.30456  1.0000
  S   S27       1.0  0.00056  0.95162  0.39655  1.0000
  Fe  Fe13      1.0  0.97399  0.80299  0.43331  1.0000
  H   H109      1.0  0.26537  0.09276  0.35618  1.0000
  C   C64       1.0  0.41936  0.14295  0.35602  1.0000
  H   H110      1.0  0.28755  0.00049  0.36586  1.0000
  H   H111      1.0  0.41360  0.09780  0.32911  1.0000
  C   C65       1.0  0.18395  0.86535  0.28739  1.0000
  C   C66       1.0  0.12607  0.76640  0.41911  1.0000
  C   C67       1.0  0.23397  0.83615  0.35639  1.0000
  Fe  Fe14      1.0  0.35032  0.72396  0.43738  1.0000
  S   S28       1.0  0.33150  0.85611  0.36065  1.0000
  C   C68       1.0  0.29646  0.04388  0.39567  1.0000
  S   S29       1.0  0.97569  0.76176  0.34661  1.0000
  N   N8        1.0  0.38110  0.09082  0.42089  1.0000
  C   C69       1.0  0.07528  0.79254  0.34997  1.0000
  C   C70       1.0  0.20523  0.78781  0.42226  1.0000
  C   C71       1.0  0.10420  0.84239  0.28403  1.0000
  H   H112      1.0  0.26651  0.00030  0.44375  1.0000
  H   H113      1.0  0.39263  0.19468  0.31238  1.0000
  C   C72       1.0  0.41856  0.02307  0.47714  1.0000
  H   H114      1.0  0.24407  0.76635  0.47586  1.0000
  S   S30       1.0  0.05200  0.79306  0.54823  1.0000
  C   C73       1.0  0.12385  0.16433  0.46676  1.0000
  C   C74       1.0  0.19363  0.14523  0.50523  1.0000
  S   S31       1.0  0.19153  0.03320  0.54475  1.0000
  Fe  Fe15      1.0  0.06952  0.93917  0.51433  1.0000
  Fe  Fe16      1.0  0.94455  0.76526  0.58213  1.0000
  H   H115      1.0  0.39197  0.98295  0.52737  1.0000
  H   H116      1.0  0.10390  0.72742  0.47011  1.0000
  H   H117      1.0  0.06799  0.10979  0.46397  1.0000
  S   S32       1.0  0.96590  0.91162  0.55426  1.0000
  H   H118      1.0  0.35985  0.11620  0.50256  1.0000
  H   H119      1.0  0.41189  0.97423  0.45344  1.0000
  C   C75       1.0  0.38986  0.15324  0.45466  1.0000
  H   H120      1.0  0.10175  0.17689  0.63945  1.0000
  C   C76       1.0  0.18972  0.75938  0.77079  1.0000
  H   H121      1.0  0.18310  0.70340  0.66635  1.0000
  C   C77       1.0  0.05783  0.11282  0.66750  1.0000
  H   H122      1.0  0.94785  0.01280  0.75153  1.0000
  H   H123      1.0  0.99514  0.18168  0.71219  1.0000
  N   N9        1.0  0.06727  0.10216  0.74586  1.0000
  H   H124      1.0  0.06605  0.05612  0.66504  1.0000
  H   H125      1.0  0.99840  0.11518  0.63303  1.0000
  H   H126      1.0  0.16165  0.79571  0.71314  1.0000
  C   C78       1.0  0.05432  0.17788  0.74605  1.0000
  H   H127      1.0  0.41297  0.18443  0.71903  1.0000
  H   H128      1.0  0.19313  0.16733  0.76356  1.0000
  H   H129      1.0  0.27561  0.70875  0.73315  1.0000
  H   H130      1.0  0.05849  0.17058  0.80403  1.0000
  H   H131      1.0  0.10108  0.82116  0.90242  1.0000
  H   H132      1.0  0.01498  0.00550  0.84097  1.0000
  C   C79       1.0  0.13191  0.86934  0.93140  1.0000
  S   S33       1.0  0.26166  0.90555  0.88679  1.0000
  H   H133      1.0  0.15666  0.09419  0.84790  1.0000
  C   C80       1.0  0.21229  0.91869  0.93383  1.0000
  H   H134      1.0  0.16406  0.75874  0.81101  1.0000
  H   H135      1.0  0.25348  0.80045  0.78111  1.0000
  H   H136      1.0  0.15977  0.04644  0.78932  1.0000
  C   C81       1.0  0.00935  0.01549  0.78171  1.0000
  H   H137      1.0  0.01763  0.95652  0.78336  1.0000
  C   C82       1.0  0.14774  0.10259  0.78844  1.0000
  C   C83       1.0  0.25949  0.73351  0.10622  1.0000
  S   S34       1.0  0.08046  0.96094  0.04793  1.0000
  S   S35       1.0  0.11019  0.18309  0.07774  1.0000
  H   H138      1.0  0.27485  0.80337  0.06463  1.0000
  Fe  Fe17      1.0  0.37883  0.88916  0.95337  1.0000
  H   H139      1.0  0.96757  0.05722  0.98401  1.0000
  S   S36       1.0  0.37615  0.74894  0.98489  1.0000
  H   H140      1.0  0.24192  0.04312  0.03339  1.0000
  C   C84       1.0  0.21091  0.99441  0.00531  1.0000
  Fe  Fe18      1.0  0.14877  0.09959  0.05368  1.0000
  C   C85       1.0  0.25199  0.98046  0.97154  1.0000
  H   H141      1.0  0.31392  0.01936  0.97295  1.0000
  C   C86       1.0  0.13074  0.94440  0.00384  1.0000
  H   H142      1.0  0.02954  0.84226  0.96621  1.0000
  C   C87       1.0  0.09147  0.88106  0.96753  1.0000
  H   H143      1.0  0.93938  0.20337  0.12367  1.0000
  C   C88       1.0  0.36051  0.49532  0.27803  1.0000
  H   H144      1.0  0.37063  0.40515  0.14484  1.0000
  H   H145      1.0  0.07926  0.38253  0.20674  1.0000
  Fe  Fe19      1.0  0.23619  0.23625  0.13492  1.0000
  C   C89       1.0  0.40039  0.55513  0.21969  1.0000
  C   C90       1.0  0.32014  0.37199  0.23492  1.0000
  H   H146      1.0  0.95213  0.27858  0.23974  1.0000
  S   S37       1.0  0.26455  0.25873  0.24219  1.0000
  H   H147      1.0  0.03590  0.62870  0.22398  1.0000
  H   H148      1.0  0.14059  0.34212  0.19394  1.0000
  C   C91       1.0  0.23888  0.63894  0.23185  1.0000
  H   H149      1.0  0.28689  0.61372  0.24540  1.0000
  C   C92       1.0  0.09658  0.32265  0.22572  1.0000
  N   N10       1.0  0.02794  0.24239  0.21511  1.0000
  C   C93       1.0  0.40207  0.52292  0.17012  1.0000
  C   C94       1.0  0.36395  0.43076  0.17933  1.0000
  H   H150      1.0  0.18346  0.59087  0.21027  1.0000
  H   H151      1.0  0.99560  0.67394  0.25701  1.0000
  C   C95       1.0  0.96978  0.21961  0.25641  1.0000
  C   C96       1.0  0.99093  0.26243  0.13418  1.0000
  C   C97       1.0  0.02849  0.62764  0.27542  1.0000
  C   C98       1.0  0.12650  0.25445  0.43103  1.0000
  H   H152      1.0  0.28688  0.35889  0.32871  1.0000
  S   S38       1.0  0.39498  0.65346  0.40456  1.0000
  N   N11       1.0  0.98672  0.53491  0.32117  1.0000
  H   H153      1.0  0.36336  0.20616  0.41275  1.0000
  H   H154      1.0  0.07278  0.26974  0.40178  1.0000
  H   H155      1.0  0.99370  0.19779  0.31804  1.0000
  C   C99       1.0  0.03203  0.47596  0.34367  1.0000
  C   C100      1.0  0.19869  0.32535  0.43257  1.0000
  S   S39       1.0  0.20136  0.43683  0.37816  1.0000
  H   H156      1.0  0.08990  0.49736  0.38153  1.0000
  H   H157      1.0  0.03724  0.56340  0.42410  1.0000
  H   H158      1.0  0.00039  0.40435  0.37467  1.0000
  H   H159      1.0  0.94744  0.46808  0.42475  1.0000
  H   H160      1.0  0.36119  0.51901  0.31826  1.0000
  H   H161      1.0  0.04369  0.47724  0.29422  1.0000
  C   C101      1.0  0.97876  0.53677  0.38897  1.0000
  H   H162      1.0  0.94451  0.58023  0.37396  1.0000
  H   H163      1.0  0.23398  0.63499  0.28550  1.0000
  Fe  Fe20      1.0  0.29159  0.52973  0.43981  1.0000
  H   H164      1.0  0.12819  0.30949  0.28547  1.0000
  H   H165      1.0  0.08801  0.65653  0.30797  1.0000
  C   C102      1.0  0.31931  0.40427  0.28477  1.0000
  H   H166      1.0  0.20244  0.40537  0.56988  1.0000
  C   C103      1.0  0.07797  0.34731  0.53923  1.0000
  H   H167      1.0  0.08059  0.32171  0.50205  1.0000
  S   S40       1.0  0.24173  0.60414  0.46120  1.0000
  Fe  Fe21      1.0  0.30887  0.56174  0.57949  1.0000
  C   C104      1.0  0.14747  0.39564  0.57753  1.0000
  S   S41       1.0  0.35336  0.47988  0.55970  1.0000
  C   C105      1.0  0.00557  0.33358  0.54769  1.0000
  C   C106      1.0  0.26818  0.30634  0.47392  1.0000
  H   H168      1.0  0.32418  0.36109  0.47471  1.0000
  S   S42       1.0  0.41553  0.68753  0.55799  1.0000
  C   C107      1.0  0.26558  0.21613  0.51040  1.0000
  C   C108      1.0  0.00279  0.36615  0.59677  1.0000
  H   H169      1.0  0.94681  0.35501  0.60413  1.0000
  H   H170      1.0  0.31941  0.20145  0.54075  1.0000
  S   S43       1.0  0.23436  0.50220  0.66324  1.0000
  C   C109      1.0  0.14567  0.43197  0.62408  1.0000
  H   H171      1.0  0.07099  0.44298  0.67136  1.0000
  H   H172      1.0  0.20240  0.60086  0.73063  1.0000
  H   H173      1.0  0.06098  0.64650  0.70980  1.0000
  H   H174      1.0  0.39737  0.59657  0.71941  1.0000
  H   H175      1.0  0.09887  0.24407  0.72200  1.0000
  C   C110      1.0  0.07309  0.41559  0.63509  1.0000
  C   C111      1.0  0.21122  0.67015  0.72515  1.0000
  C   C112      1.0  0.09207  0.61444  0.76729  1.0000
  H   H176      1.0  0.08011  0.54393  0.77358  1.0000
  N   N12       1.0  0.17733  0.66644  0.78005  1.0000
  C   C113      1.0  0.41281  0.58727  0.77991  1.0000
  H   H177      1.0  0.19310  0.61943  0.89986  1.0000
  H   H178      1.0  0.42155  0.65207  0.78324  1.0000
  H   H179      1.0  0.95301  0.43650  0.89192  1.0000
  H   H180      1.0  0.20610  0.55040  0.86667  1.0000
  S   S44       1.0  0.07270  0.37896  0.90260  1.0000
  S   S45       1.0  0.17665  0.20600  0.94405  1.0000
  C   C114      1.0  0.00137  0.45240  0.93729  1.0000
  C   C115      1.0  0.21619  0.62157  0.85706  1.0000
  H   H181      1.0  0.28092  0.65776  0.86796  1.0000
  H   H182      1.0  0.36087  0.53442  0.80400  1.0000
  H   H183      1.0  0.06417  0.60979  0.80772  1.0000
  H   H184      1.0  0.41795  0.42000  0.83788  1.0000
  Fe  Fe22      1.0  0.94209  0.59713  0.04024  1.0000
  Fe  Fe23      1.0  0.14846  0.29357  0.97362  1.0000
  H   H185      1.0  0.18230  0.43519  0.02838  1.0000
  Fe  Fe24      1.0  0.29697  0.25100  0.01390  1.0000
  C   C116      1.0  0.05888  0.51406  0.03764  1.0000
  H   H186      1.0  0.95940  0.20573  0.95639  1.0000
  H   H187      1.0  0.03330  0.28060  0.10118  1.0000
  S   S46       1.0  0.05228  0.56320  0.09104  1.0000
  S   S47       1.0  0.27221  0.35055  0.03096  1.0000
  C   C117      1.0  0.06810  0.43097  0.95489  1.0000
  C   C118      1.0  0.12605  0.49325  0.05504  1.0000
  C   C119      1.0  0.13023  0.45078  0.01434  1.0000
  H   H188      1.0  0.17480  0.50943  0.10026  1.0000
  C   C120      1.0  0.99638  0.49304  0.97895  1.0000
  S   S48       1.0  0.40471  0.28013  0.98186  1.0000
  H   H189      1.0  0.94372  0.50725  0.96573  1.0000
  H   H190      1.0  0.97028  0.32083  0.11099  1.0000
  H   H191      1.0  0.20266  0.69235  0.07933  1.0000
  H   H192      1.0  0.42889  0.32640  0.11068  1.0000
