data_image0
_chemical_formula_structural       H3NH4CH4C2HNC3H4S2Fe2S2CSHFeCSFeHSHC3NC3H3CH2SH5SH3C3HCSCH2C4H2SCHCH4C3H2SHSH2NHC2FeC3SCSCHFeSFeHCH3C7SCHC2H3C2HSH2CH2C3HSNH5SHSFe2SFe2CHSH2CH5SNCH5CSH4FeCNCHCHCH8FeH2SCSCH2CHCHSCH2CHSFeC2FeH2FeSH2SC3H3CHCHC3HNHCH3CHCSH2CH2SCFeH3Fe2S2FeSCH7SH2CH2CH3C2H3SC3H2CNC3HSHCHFeH3SCHCHCHNHSHCHNSH3C2H2CH3CH2CH3C2HCH2CSCH2C2H2CHNH3SC2FeH2C4HSHSH2CFeHSFeH3CS
_chemical_formula_sum              "H192 N12 C120 S48 Fe24"
_cell_length_a       18.8301
_cell_length_b       16.6367
_cell_length_c       23.7771
_cell_angle_alpha    90.4233
_cell_angle_beta     108.357
_cell_angle_gamma    55.6194

_space_group_name_H-M_alt    "P 1"
_space_group_IT_number       1

loop_
  _space_group_symop_operation_xyz
  'x, y, z'

loop_
  _atom_site_type_symbol
  _atom_site_label
  _atom_site_symmetry_multiplicity
  _atom_site_fract_x
  _atom_site_fract_y
  _atom_site_fract_z
  _atom_site_occupancy
  H   H1        1.0  0.70978  0.18078  0.80682  1.0000
  H   H2        1.0  0.46225  0.30142  0.79562  1.0000
  H   H3        1.0  0.49934  0.13558  0.78677  1.0000
  N   N1        1.0  0.46358  0.10317  0.85640  1.0000
  H   H4        1.0  0.57163  0.98291  0.93368  1.0000
  H   H5        1.0  0.59442  0.02617  0.84501  1.0000
  H   H6        1.0  0.76390  0.28516  0.80508  1.0000
  H   H7        1.0  0.58962  0.31698  0.84530  1.0000
  C   C1        1.0  0.51974  0.38310  0.82131  1.0000
  H   H8        1.0  0.55176  0.14765  0.86018  1.0000
  H   H9        1.0  0.88499  0.22866  0.82555  1.0000
  H   H10       1.0  0.84177  0.22859  0.88307  1.0000
  H   H11       1.0  0.78587  0.12302  0.88494  1.0000
  C   C2        1.0  0.53022  0.10288  0.83618  1.0000
  C   C3        1.0  0.50679  0.06003  0.92228  1.0000
  H   H12       1.0  0.79135  0.04767  0.82978  1.0000
  N   N2        1.0  0.85151  0.12455  0.82590  1.0000
  C   C4        1.0  0.78164  0.11883  0.83746  1.0000
  C   C5        1.0  0.83489  0.22084  0.83546  1.0000
  C   C6        1.0  0.94545  0.04139  0.86794  1.0000
  H   H13       1.0  0.49859  0.96588  0.82901  1.0000
  H   H14       1.0  0.45915  0.05681  0.93883  1.0000
  H   H15       1.0  0.95446  0.04576  0.91622  1.0000
  H   H16       1.0  0.88993  0.00236  0.02276  1.0000
  S   S1        1.0  0.71279  0.19018  0.09450  1.0000
  S   S2        1.0  0.66160  0.41133  0.05179  1.0000
  Fe  Fe1       1.0  0.64321  0.37918  0.95802  1.0000
  Fe  Fe2       1.0  0.69434  0.17384  0.99887  1.0000
  S   S3        1.0  0.77739  0.22549  0.98928  1.0000
  S   S4        1.0  0.70952  0.04075  0.96562  1.0000
  C   C7        1.0  0.46483  0.14517  0.08070  1.0000
  S   S5        1.0  0.55900  0.32515  0.96183  1.0000
  H   H17       1.0  0.52582  0.10497  0.94883  1.0000
  Fe  Fe3       1.0  0.58606  0.34747  0.05663  1.0000
  C   C8        1.0  0.81749  0.95342  0.96078  1.0000
  S   S6        1.0  0.47328  0.03592  0.07345  1.0000
  Fe  Fe4       1.0  0.78756  0.25191  0.08343  1.0000
  H   H18       1.0  0.67315  0.02115  0.08861  1.0000
  S   S7        1.0  0.47770  0.40819  0.09624  1.0000
  H   H19       1.0  0.82489  0.97035  0.08910  1.0000
  C   C9        1.0  0.46239  0.31409  0.09159  1.0000
  C   C10       1.0  0.89531  0.95046  0.99369  1.0000
  C   C11       1.0  0.71247  0.96778  0.13328  1.0000
  N   N3        1.0  0.76694  0.36474  0.26139  1.0000
  C   C12       1.0  0.50172  0.24200  0.14349  1.0000
  C   C13       1.0  0.50355  0.15702  0.13796  1.0000
  C   C14       1.0  0.75512  0.43181  0.21324  1.0000
  H   H20       1.0  0.53471  0.24926  0.18759  1.0000
  H   H21       1.0  0.87108  0.95291  0.16969  1.0000
  H   H22       1.0  0.71762  0.00976  0.16908  1.0000
  C   C15       1.0  0.72760  0.31174  0.23349  1.0000
  H   H23       1.0  0.76296  0.26656  0.20360  1.0000
  H   H24       1.0  0.90605  0.24644  0.26988  1.0000
  S   S8        1.0  0.92170  0.18414  0.16128  1.0000
  H   H25       1.0  0.53632  0.09980  0.17797  1.0000
  H   H26       1.0  0.79272  0.38924  0.18357  1.0000
  H   H27       1.0  0.65212  0.36468  0.20517  1.0000
  H   H28       1.0  0.73597  0.25970  0.26847  1.0000
  H   H29       1.0  0.88296  0.08869  0.26152  1.0000
  S   S9        1.0  0.80058  0.00401  0.29371  1.0000
  H   H30       1.0  0.89829  0.32935  0.32024  1.0000
  H   H31       1.0  0.55598  0.21065  0.33276  1.0000
  H   H32       1.0  0.72710  0.37531  0.33807  1.0000
  C   C16       1.0  0.46851  0.11260  0.42109  1.0000
  C   C17       1.0  0.50205  0.06446  0.37725  1.0000
  C   C18       1.0  0.53186  0.18329  0.35769  1.0000
  H   H33       1.0  0.87910  0.23859  0.33453  1.0000
  C   C19       1.0  0.93707  0.02064  0.29565  1.0000
  S   S10       1.0  0.51815  0.31999  0.42553  1.0000
  C   C20       1.0  0.86690  0.29152  0.29808  1.0000
  H   H34       1.0  0.55753  0.06457  0.31065  1.0000
  H   H35       1.0  0.75850  0.07368  0.39391  1.0000
  C   C21       1.0  0.91593  0.96249  0.31804  1.0000
  C   C22       1.0  0.53215  0.10097  0.34487  1.0000
  C   C23       1.0  0.71885  0.42384  0.30090  1.0000
  C   C24       1.0  0.50574  0.22618  0.40492  1.0000
  H   H36       1.0  0.88809  0.08692  0.40353  1.0000
  H   H37       1.0  0.70100  0.19018  0.41677  1.0000
  S   S11       1.0  0.52411  0.94823  0.37146  1.0000
  C   C25       1.0  0.75289  0.10797  0.43398  1.0000
  H   H38       1.0  0.82620  0.20305  0.42628  1.0000
  C   C26       1.0  0.47288  0.19180  0.43616  1.0000
  H   H39       1.0  0.56249  0.00849  0.57136  1.0000
  H   H40       1.0  0.75833  0.95085  0.53086  1.0000
  H   H41       1.0  0.72362  0.08292  0.45702  1.0000
  H   H42       1.0  0.80873  0.09715  0.55430  1.0000
  C   C27       1.0  0.93668  0.24737  0.56706  1.0000
  C   C28       1.0  0.68957  0.97060  0.52677  1.0000
  C   C29       1.0  0.75480  0.40154  0.55407  1.0000
  H   H43       1.0  0.89917  0.10848  0.56088  1.0000
  H   H44       1.0  0.65494  0.96793  0.48031  1.0000
  S   S12       1.0  0.66418  0.22158  0.59910  1.0000
  H   H45       1.0  0.64693  0.04906  0.53193  1.0000
  S   S13       1.0  0.90742  0.30659  0.44935  1.0000
  H   H46       1.0  0.94412  0.10492  0.47362  1.0000
  H   H47       1.0  0.73456  0.44609  0.46224  1.0000
  N   N4        1.0  0.84355  0.08176  0.47537  1.0000
  H   H48       1.0  0.78107  0.20932  0.51522  1.0000
  C   C30       1.0  0.78319  0.39283  0.50509  1.0000
  C   C31       1.0  0.87427  0.31613  0.51163  1.0000
  Fe  Fe5       1.0  0.53239  0.33379  0.52158  1.0000
  C   C32       1.0  0.91182  0.97221  0.49564  1.0000
  C   C33       1.0  0.83232  0.12658  0.52857  1.0000
  C   C34       1.0  0.87700  0.12085  0.44322  1.0000
  S   S14       1.0  0.57132  0.36421  0.68829  1.0000
  C   C35       1.0  0.84381  0.11727  0.76253  1.0000
  S   S15       1.0  0.62997  0.10396  0.71380  1.0000
  C   C36       1.0  0.52418  0.95041  0.71127  1.0000
  H   H49       1.0  0.95542  0.20283  0.65886  1.0000
  Fe  Fe6       1.0  0.65260  0.35199  0.63342  1.0000
  S   S16       1.0  0.78179  0.34291  0.67070  1.0000
  Fe  Fe7       1.0  0.57462  0.24070  0.64877  1.0000
  H   H50       1.0  0.89366  0.12411  0.75140  1.0000
  C   C37       1.0  0.55713  0.06685  0.69332  1.0000
  H   H51       1.0  0.85707  0.04520  0.75346  1.0000
  H   H52       1.0  0.70980  0.98501  0.63970  1.0000
  H   H53       1.0  0.77328  0.17796  0.72996  1.0000
  C   C38       1.0  0.58546  0.97665  0.72469  1.0000
  C   C39       1.0  0.46908  0.12902  0.64759  1.0000
  C   C40       1.0  0.90808  0.25646  0.61611  1.0000
  C   C41       1.0  0.81758  0.33388  0.60982  1.0000
  C   C42       1.0  0.86265  0.58631  0.78666  1.0000
  C   C43       1.0  0.82570  0.88533  0.92371  1.0000
  C   C44       1.0  0.83560  0.62174  0.83515  1.0000
  S   S17       1.0  0.58348  0.48889  0.87206  1.0000
  C   C45       1.0  0.87848  0.55547  0.89091  1.0000
  H   H54       1.0  0.78410  0.70065  0.83028  1.0000
  C   C46       1.0  0.93111  0.48494  0.79350  1.0000
  C   C47       1.0  0.50019  0.47759  0.82156  1.0000
  H   H55       1.0  0.91643  0.76454  0.88882  1.0000
  H   H56       1.0  0.85896  0.58297  0.92883  1.0000
  H   H57       1.0  0.76592  0.88690  0.89840  1.0000
  C   C48       1.0  0.91080  0.81640  0.91801  1.0000
  C   C49       1.0  0.94913  0.45437  0.89818  1.0000
  H   H58       1.0  0.52524  0.68355  0.78513  1.0000
  S   S18       1.0  0.92374  0.82163  0.77368  1.0000
  H   H59       1.0  0.86216  0.76542  0.08846  1.0000
  H   H60       1.0  0.49323  0.59269  0.96491  1.0000
  C   C50       1.0  0.79390  0.82938  0.08822  1.0000
  H   H61       1.0  0.75463  0.88060  0.04294  1.0000
  H   H62       1.0  0.75482  0.80014  0.09275  1.0000
  C   C51       1.0  0.86046  0.91530  0.13226  1.0000
  C   C52       1.0  0.92114  0.51918  0.25913  1.0000
  C   C53       1.0  0.85322  0.81113  0.19650  1.0000
  H   H63       1.0  0.92084  0.74185  0.19990  1.0000
  S   S19       1.0  0.80749  0.62521  0.22037  1.0000
  N   N5        1.0  0.80507  0.88098  0.13746  1.0000
  H   H64       1.0  0.86698  0.84564  0.23464  1.0000
  H   H65       1.0  0.78328  0.47350  0.23296  1.0000
  H   H66       1.0  0.92995  0.85250  0.13356  1.0000
  H   H67       1.0  0.68069  0.48767  0.18393  1.0000
  H   H68       1.0  0.81045  0.78886  0.20339  1.0000
  S   S20       1.0  0.67101  0.88428  0.26753  1.0000
  H   H69       1.0  0.66956  0.94439  0.13859  1.0000
  S   S21       1.0  0.75184  0.69353  0.37234  1.0000
  Fe  Fe8       1.0  0.77649  0.71831  0.28978  1.0000
  Fe  Fe9       1.0  0.65636  0.86056  0.35472  1.0000
  S   S22       1.0  0.76688  0.87553  0.41156  1.0000
  Fe  Fe10      1.0  0.78819  0.88756  0.32573  1.0000
  Fe  Fe11      1.0  0.86345  0.71024  0.42357  1.0000
  C   C54       1.0  0.94935  0.48113  0.32039  1.0000
  H   H70       1.0  0.90034  0.51414  0.34278  1.0000
  S   S23       1.0  0.89501  0.72300  0.34259  1.0000
  H   H71       1.0  0.74792  0.46384  0.32306  1.0000
  H   H72       1.0  0.64323  0.48053  0.27478  1.0000
  C   C55       1.0  0.60743  0.93033  0.56642  1.0000
  H   H73       1.0  0.68466  0.46171  0.54888  1.0000
  H   H74       1.0  0.82617  0.77418  0.56706  1.0000
  H   H75       1.0  0.72180  0.79260  0.51729  1.0000
  H   H76       1.0  0.52330  0.67241  0.60498  1.0000
  H   H77       1.0  0.57080  0.92477  0.52124  1.0000
  S   S24       1.0  0.52791  0.46338  0.55195  1.0000
  N   N6        1.0  0.69997  0.90149  0.57247  1.0000
  C   C56       1.0  0.75585  0.79873  0.56313  1.0000
  H   H78       1.0  0.92121  0.93619  0.45650  1.0000
  H   H79       1.0  0.89026  0.93968  0.52119  1.0000
  H   H80       1.0  0.61302  0.88132  0.60182  1.0000
  H   H81       1.0  0.76554  0.74434  0.59709  1.0000
  H   H82       1.0  0.67271  0.61166  0.76812  1.0000
  C   C57       1.0  0.55773  0.56597  0.70630  1.0000
  S   S25       1.0  0.82389  0.67005  0.72153  1.0000
  H   H83       1.0  0.59730  0.51929  0.67866  1.0000
  H   H84       1.0  0.65391  0.92821  0.76011  1.0000
  H   H85       1.0  0.75080  0.86210  0.66976  1.0000
  H   H86       1.0  0.59874  0.52393  0.75443  1.0000
  Fe  Fe12      1.0  0.93811  0.68777  0.74195  1.0000
  C   C58       1.0  0.63083  0.64925  0.71923  1.0000
  N   N7        1.0  0.54073  0.66398  0.69916  1.0000
  C   C59       1.0  0.48633  0.71625  0.63456  1.0000
  H   H87       1.0  0.47273  0.79039  0.62718  1.0000
  C   C60       1.0  0.74719  0.90716  0.63331  1.0000
  H   H88       1.0  0.54504  0.88226  0.73675  1.0000
  C   C61       1.0  0.48795  0.72319  0.73652  1.0000
  H   H89       1.0  0.81888  0.88101  0.64033  1.0000
  H   H90       1.0  0.67353  0.60175  0.69318  1.0000
  H   H91       1.0  0.49106  0.57442  0.69185  1.0000
  H   H92       1.0  0.62137  0.72128  0.71281  1.0000
  H   H93       1.0  0.47577  0.79679  0.73386  1.0000
  H   H94       1.0  0.95257  0.45817  0.75628  1.0000
  H   H95       1.0  0.39760  0.25364  0.86976  1.0000
  H   H96       1.0  0.34955  0.24304  0.79485  1.0000
  Fe  Fe13      1.0  0.21937  0.08919  0.88456  1.0000
  H   H97       1.0  0.32604  0.21043  0.85495  1.0000
  H   H98       1.0  0.95941  0.96773  0.86275  1.0000
  S   S26       1.0  0.10212  0.12638  0.91145  1.0000
  C   C62       1.0  0.12816  0.99051  0.78738  1.0000
  S   S27       1.0  0.21688  0.07741  0.79026  1.0000
  C   C63       1.0  0.38043  0.20700  0.84364  1.0000
  H   H99       1.0  0.02834  0.34083  0.85437  1.0000
  H   H100      1.0  0.39077  0.03692  0.83980  1.0000
  C   C64       1.0  0.43681  0.04307  0.82323  1.0000
  H   H101      1.0  0.14601  0.98754  0.83541  1.0000
  C   C65       1.0  0.97430  0.41884  0.84917  1.0000
  H   H102      1.0  0.99991  0.04199  0.85951  1.0000
  S   S28       1.0  0.23578  0.19951  0.93013  1.0000
  C   C66       1.0  0.44779  0.37398  0.79358  1.0000
  H   H103      1.0  0.39877  0.07661  0.77366  1.0000
  H   H104      1.0  0.06162  0.11295  0.01168  1.0000
  C   C67       1.0  0.00189  0.14345  0.07879  1.0000
  H   H105      1.0  0.17406  0.35049  0.04240  1.0000
  S   S29       1.0  0.32952  0.95949  0.96325  1.0000
  Fe  Fe14      1.0  0.21366  0.00529  0.99421  1.0000
  C   C68       1.0  0.42294  0.21889  0.02908  1.0000
  C   C69       1.0  0.21497  0.38001  0.04491  1.0000
  Fe  Fe15      1.0  0.12754  0.22546  0.96403  1.0000
  H   H106      1.0  0.28346  0.32858  0.08275  1.0000
  H   H107      1.0  0.22719  0.37583  0.00180  1.0000
  Fe  Fe16      1.0  0.33787  0.07197  0.01089  1.0000
  S   S30       1.0  0.01084  0.37400  0.96959  1.0000
  H   H108      1.0  0.39339  0.20988  0.98480  1.0000
  H   H109      1.0  0.39455  0.35725  0.99408  1.0000
  S   S31       1.0  0.23136  0.10718  0.04874  1.0000
  C   C70       1.0  0.06092  0.08058  0.05028  1.0000
  C   C71       1.0  0.42309  0.30259  0.03441  1.0000
  C   C72       1.0  0.11802  0.97723  0.07150  1.0000
  H   H110      1.0  0.95774  0.22349  0.06177  1.0000
  H   H111      1.0  0.12111  0.09111  0.25192  1.0000
  H   H112      1.0  0.12774  0.36232  0.24205  1.0000
  C   C73       1.0  0.29627  0.09654  0.24544  1.0000
  H   H113      1.0  0.26176  0.13739  0.19734  1.0000
  C   C74       1.0  0.15473  0.12505  0.24374  1.0000
  H   H114      1.0  0.11687  0.16634  0.19551  1.0000
  C   C75       1.0  0.05595  0.99980  0.15033  1.0000
  C   C76       1.0  0.00017  0.10335  0.12913  1.0000
  C   C77       1.0  0.26646  0.97533  0.21879  1.0000
  H   H115      1.0  0.14354  0.18063  0.27270  1.0000
  N   N8        1.0  0.25471  0.04844  0.25745  1.0000
  H   H116      1.0  0.05326  0.96886  0.18885  1.0000
  C   C78       1.0  0.07798  0.39564  0.26388  1.0000
  H   H117      1.0  0.37154  0.04047  0.25478  1.0000
  H   H118      1.0  0.22944  0.01227  0.16972  1.0000
  H   H119      1.0  0.21218  0.43600  0.15041  1.0000
  C   C79       1.0  0.30147  0.99656  0.32195  1.0000
  H   H120      1.0  0.30079  0.04779  0.35246  1.0000
  C   C80       1.0  0.10564  0.35718  0.32514  1.0000
  S   S32       1.0  0.09664  0.15176  0.38574  1.0000
  H   H121      1.0  0.29066  0.15046  0.27503  1.0000
  H   H122      1.0  0.04450  0.03680  0.30077  1.0000
  C   C81       1.0  0.02847  0.99116  0.31773  1.0000
  H   H123      1.0  0.32414  0.39975  0.36665  1.0000
  H   H124      1.0  0.06182  0.37062  0.40034  1.0000
  S   S33       1.0  0.22032  0.25542  0.36714  1.0000
  C   C82       1.0  0.04102  0.39944  0.35305  1.0000
  Fe  Fe17      1.0  0.20933  0.16858  0.43133  1.0000
  H   H125      1.0  0.18062  0.42836  0.42076  1.0000
  H   H126      1.0  0.20770  0.44300  0.32446  1.0000
  H   H127      1.0  0.26748  0.96570  0.33377  1.0000
  Fe  Fe18      1.0  0.19697  0.99420  0.43789  1.0000
  Fe  Fe19      1.0  0.25944  0.05313  0.55299  1.0000
  S   S34       1.0  0.14879  0.02978  0.51564  1.0000
  S   S35       1.0  0.16519  0.21674  0.50984  1.0000
  Fe  Fe20      1.0  0.05822  0.18997  0.46691  1.0000
  S   S36       1.0  0.31375  0.00693  0.47820  1.0000
  C   C83       1.0  0.03467  0.37802  0.59442  1.0000
  H   H128      1.0  0.30158  0.37198  0.45702  1.0000
  H   H129      1.0  0.95882  0.43726  0.58094  1.0000
  H   H130      1.0  0.04306  0.31248  0.57686  1.0000
  H   H131      1.0  0.98115  0.95045  0.52669  1.0000
  H   H132      1.0  0.45213  0.22491  0.47247  1.0000
  H   H133      1.0  0.00668  0.18682  0.57209  1.0000
  H   H134      1.0  0.06107  0.40596  0.57033  1.0000
  S   S37       1.0  0.44183  0.34369  0.56784  1.0000
  H   H135      1.0  0.44415  0.08522  0.44573  1.0000
  H   H136      1.0  0.34067  0.15063  0.59801  1.0000
  C   C84       1.0  0.23177  0.44458  0.44133  1.0000
  H   H137      1.0  0.06594  0.99816  0.61487  1.0000
  H   H138      1.0  0.06781  0.23899  0.67933  1.0000
  C   C85       1.0  0.15816  0.02700  0.75478  1.0000
  H   H139      1.0  0.16327  0.05221  0.66783  1.0000
  H   H140      1.0  0.44608  0.19945  0.62432  1.0000
  H   H141      1.0  0.10667  0.42496  0.73210  1.0000
  C   C86       1.0  0.04999  0.31137  0.69081  1.0000
  C   C87       1.0  0.43590  0.01305  0.66536  1.0000
  H   H142      1.0  0.21513  0.30519  0.65709  1.0000
  H   H143      1.0  0.22349  0.25033  0.72594  1.0000
  H   H144      1.0  0.97319  0.36344  0.67699  1.0000
  S   S38       1.0  0.35793  0.98295  0.64978  1.0000
  C   C88       1.0  0.13798  0.02678  0.69292  1.0000
  C   C89       1.0  0.08253  0.99657  0.66289  1.0000
  C   C90       1.0  0.40896  0.10154  0.63299  1.0000
  H   H145      1.0  0.19919  0.20811  0.65807  1.0000
  H   H146      1.0  0.08179  0.29673  0.74113  1.0000
  C   C91       1.0  0.18510  0.27568  0.67603  1.0000
  N   N9        1.0  0.08458  0.35183  0.66086  1.0000
  C   C92       1.0  0.07416  0.95859  0.75761  1.0000
  C   C93       1.0  0.04874  0.96471  0.69494  1.0000
  C   C94       1.0  0.06846  0.44211  0.68231  1.0000
  H   H147      1.0  0.24833  0.78102  0.86424  1.0000
  S   S39       1.0  0.07291  0.57663  0.81873  1.0000
  H   H148      1.0  0.26292  0.83807  0.92717  1.0000
  C   C95       1.0  0.26112  0.77510  0.91353  1.0000
  H   H149      1.0  0.39502  0.63586  0.78659  1.0000
  Fe  Fe21      1.0  0.06283  0.71014  0.84639  1.0000
  H   H150      1.0  0.33654  0.59287  0.88377  1.0000
  H   H151      1.0  0.04971  0.93216  0.78271  1.0000
  H   H152      1.0  0.41678  0.67100  0.89089  1.0000
  S   S40       1.0  0.14128  0.70908  0.79257  1.0000
  C   C96       1.0  0.41033  0.56257  0.78837  1.0000
  H   H153      1.0  0.20020  0.78668  0.91995  1.0000
  C   C97       1.0  0.34207  0.59637  0.93158  1.0000
  H   H154      1.0  0.28060  0.60593  0.93572  1.0000
  C   C98       1.0  0.42672  0.66635  0.93975  1.0000
  H   H155      1.0  0.43487  0.72522  0.95457  1.0000
  N   N10       1.0  0.34820  0.67798  0.94994  1.0000
  H   H156      1.0  0.29139  0.47117  0.10002  1.0000
  S   S41       1.0  0.19751  0.90158  0.03816  1.0000
  H   H157      1.0  0.04133  0.87702  0.01457  1.0000
  C   C99       1.0  0.98845  0.81376  0.95061  1.0000
  H   H158      1.0  0.30382  0.68438  0.02385  1.0000
  N   N11       1.0  0.16610  0.48327  0.05415  1.0000
  S   S42       1.0  0.09408  0.72993  0.94203  1.0000
  H   H159      1.0  0.40444  0.52275  0.96067  1.0000
  H   H160      1.0  0.36861  0.73417  0.03072  1.0000
  H   H161      1.0  0.03936  0.62800  0.00693  1.0000
  C   C100      1.0  0.36287  0.67419  0.01497  1.0000
  C   C101      1.0  0.22488  0.51761  0.05999  1.0000
  H   H162      1.0  0.24258  0.51414  0.01911  1.0000
  H   H163      1.0  0.10187  0.46115  0.10660  1.0000
  C   C102      1.0  0.98113  0.87938  0.98932  1.0000
  H   H164      1.0  0.42744  0.60155  0.04385  1.0000
  H   H165      1.0  0.03108  0.52655  0.99627  1.0000
  H   H166      1.0  0.18902  0.59648  0.06506  1.0000
  C   C103      1.0  0.07761  0.54941  0.00170  1.0000
  H   H167      1.0  0.08921  0.54857  0.95850  1.0000
  H   H168      1.0  0.15873  0.85634  0.13752  1.0000
  C   C104      1.0  0.11467  0.93639  0.12107  1.0000
  H   H169      1.0  0.34101  0.91815  0.22670  1.0000
  H   H170      1.0  0.23883  0.93521  0.22845  1.0000
  H   H171      1.0  0.96324  0.50540  0.18309  1.0000
  C   C105      1.0  0.98513  0.47593  0.23054  1.0000
  C   C106      1.0  0.14678  0.48603  0.11003  1.0000
  H   H172      1.0  0.11043  0.56284  0.11853  1.0000
  C   C107      1.0  0.07806  0.84352  0.38291  1.0000
  H   H173      1.0  0.13233  0.77664  0.41797  1.0000
  H   H174      1.0  0.97011  0.83008  0.38011  1.0000
  C   C108      1.0  0.25101  0.46753  0.34849  1.0000
  S   S43       1.0  0.21109  0.87021  0.39304  1.0000
  C   C109      1.0  0.12555  0.60437  0.37176  1.0000
  H   H175      1.0  0.27656  0.60093  0.39786  1.0000
  H   H176      1.0  0.24562  0.51867  0.31484  1.0000
  C   C110      1.0  0.28312  0.54554  0.42909  1.0000
  C   C111      1.0  0.98643  0.87369  0.36141  1.0000
  H   H177      1.0  0.07922  0.58399  0.34641  1.0000
  H   H178      1.0  0.11627  0.66120  0.33993  1.0000
  C   C112      1.0  0.09888  0.90261  0.36140  1.0000
  H   H179      1.0  0.10161  0.63999  0.40818  1.0000
  N   N12       1.0  0.22308  0.51544  0.39773  1.0000
  H   H180      1.0  0.37540  0.93312  0.33294  1.0000
  H   H181      1.0  0.12671  0.76751  0.52149  1.0000
  H   H182      1.0  0.16428  0.46102  0.59111  1.0000
  S   S44       1.0  0.97357  0.60519  0.51241  1.0000
  C   C113      1.0  0.15539  0.52820  0.57596  1.0000
  C   C114      1.0  0.06844  0.61090  0.53665  1.0000
  Fe  Fe22      1.0  0.44590  0.46657  0.60371  1.0000
  H   H183      1.0  0.99113  0.76057  0.48614  1.0000
  H   H184      1.0  0.26521  0.58024  0.46736  1.0000
  C   C115      1.0  0.23219  0.53105  0.59475  1.0000
  C   C116      1.0  0.05815  0.69695  0.51655  1.0000
  C   C117      1.0  0.13459  0.70073  0.53657  1.0000
  C   C118      1.0  0.22191  0.61727  0.57519  1.0000
  H   H185      1.0  0.21960  0.47460  0.48185  1.0000
  S   S45       1.0  0.31916  0.61844  0.59512  1.0000
  H   H186      1.0  0.35747  0.48048  0.44809  1.0000
  S   S46       1.0  0.97243  0.93561  0.65662  1.0000
  H   H187      1.0  0.29917  0.46691  0.62526  1.0000
  H   H188      1.0  0.09238  0.47559  0.65986  1.0000
  C   C119      1.0  0.33821  0.55312  0.76105  1.0000
  Fe  Fe23      1.0  0.00308  0.80903  0.71694  1.0000
  H   H189      1.0  0.41839  0.73806  0.72075  1.0000
  S   S47       1.0  0.00587  0.68435  0.67870  1.0000
  Fe  Fe24      1.0  0.14006  0.58428  0.75799  1.0000
  H   H190      1.0  0.99331  0.50041  0.67226  1.0000
  H   H191      1.0  0.26856  0.61870  0.73613  1.0000
  H   H192      1.0  0.41756  0.72904  0.61825  1.0000
  C   C120      1.0  0.35619  0.45903  0.76699  1.0000
  S   S48       1.0  0.26536  0.44656  0.74966  1.0000
