data_image0
_chemical_formula_structural       HNS3H2C4H3CH2FeSCHCHC2H4CHNHCFeCH4CSHS2HCSCH3CH4C2SC2H2CSHC2H3NCHCHCHSH5CHSNCFeH2SC4HCHCHCH5CHCHC3HSCSC3FeCNHC2HSHC3HCFeHCH3FeH4FeC3SH3SFeH4C3SHCFeHCH2NC3H2SHCFeHC2SH4S2CH2CSCHCH2CH2CH2CH2C2HCH5NCH2SC2H6CH2CHC3FeH2SHNH2SC2H2CHCFeCSH3CFeH2CH2SH2C2HCHSCHCH2CHSH2FeH3NHCH2SHSCFe2HSHFe3H2SCS2HS2HCH2C2H2FeCSHFeSCH2SH2CH2SCHCNCHCH2CFeHCHSCHS2H4FeCHFeCH3CH4NHS2CHCH3CHC2HC2HCHFeSCHCHFeH2CNSH4FeH2C3SFeHSCHSH2CH7SHCH2C2H2SCHC2S2FeSH2SHCSCHFeHCHCH2C2HC2NH2FeH2SFeHFeCSFeNHSCSFeHCFeHFeCH2CH3CH2CHNHC3HCH4CNCSCSH4CH3SC2NCHSH2CHC4H2CSH3SH2FeHC2H3SH4C4HNH2SCH2CH2CNHSCH3CH2C3HNH3CSH5SHCH4C5HC2HCH3CH3CSH3CS2H2CSFe2CHSCH2
_chemical_formula_sum              "H320 N20 S80 C200 Fe40"
_cell_length_a       19.3318
_cell_length_b       26.1615
_cell_length_c       22.7289
_cell_angle_alpha    54.2221
_cell_angle_beta     100.937
_cell_angle_gamma    88.8561

_space_group_name_H-M_alt    "P 1"
_space_group_IT_number       1

loop_
  _space_group_symop_operation_xyz
  'x, y, z'

loop_
  _atom_site_type_symbol
  _atom_site_label
  _atom_site_symmetry_multiplicity
  _atom_site_fract_x
  _atom_site_fract_y
  _atom_site_fract_z
  _atom_site_occupancy
  H   H1        1.0  0.49209  0.63203  0.10367  1.0000
  N   N1        1.0  0.55993  0.68191  0.28554  1.0000
  S   S1        1.0  0.77904  0.87610  0.19970  1.0000
  S   S2        1.0  0.84964  0.66744  0.12599  1.0000
  S   S3        1.0  0.63154  0.85808  0.25813  1.0000
  H   H2        1.0  0.46950  0.75136  0.19772  1.0000
  H   H3        1.0  0.63151  0.72691  0.21388  1.0000
  C   C1        1.0  0.54547  0.63010  0.09754  1.0000
  C   C2        1.0  0.60040  0.68678  0.23381  1.0000
  C   C3        1.0  0.67086  0.58616  0.15473  1.0000
  C   C4        1.0  0.60130  0.59099  0.16161  1.0000
  H   H4        1.0  0.47885  0.74057  0.28436  1.0000
  H   H5        1.0  0.63894  0.64217  0.26134  1.0000
  H   H6        1.0  0.48266  0.63351  0.26311  1.0000
  C   C5        1.0  0.50932  0.74193  0.24661  1.0000
  H   H7        1.0  0.53739  0.78393  0.22498  1.0000
  H   H8        1.0  0.56422  0.69532  0.18350  1.0000
  Fe  Fe1       1.0  0.74843  0.82086  0.30921  1.0000
  S   S4        1.0  0.41127  0.72300  0.09463  1.0000
  C   C6        1.0  0.68402  0.61959  0.08340  1.0000
  H   H9        1.0  0.73712  0.61459  0.07729  1.0000
  C   C7        1.0  0.41132  0.90828  0.08410  1.0000
  H   H10       1.0  0.38180  0.91090  0.11849  1.0000
  C   C8        1.0  0.51997  0.62786  0.31102  1.0000
  C   C9        1.0  0.65651  0.84595  0.51140  1.0000
  H   H11       1.0  0.69516  0.86393  0.47561  1.0000
  H   H12       1.0  0.64176  0.71057  0.33391  1.0000
  H   H13       1.0  0.68327  0.83517  0.56622  1.0000
  H   H14       1.0  0.48749  0.62376  0.34870  1.0000
  C   C10       1.0  0.85395  0.70532  0.35527  1.0000
  H   H15       1.0  0.53159  0.80653  0.54019  1.0000
  N   N2        1.0  0.63114  0.78928  0.52063  1.0000
  H   H16       1.0  0.54939  0.84452  0.41738  1.0000
  C   C11       1.0  0.85141  0.66017  0.34103  1.0000
  Fe  Fe2       1.0  0.44142  0.64703  0.50018  1.0000
  C   C12       1.0  0.57880  0.76826  0.56696  1.0000
  H   H17       1.0  0.58171  0.66740  0.39113  1.0000
  H   H18       1.0  0.64908  0.62597  0.38213  1.0000
  H   H19       1.0  0.57864  0.76407  0.45072  1.0000
  H   H20       1.0  0.81066  0.62998  0.35560  1.0000
  C   C13       1.0  0.59675  0.80604  0.44632  1.0000
  S   S5        1.0  0.76971  0.89317  0.33011  1.0000
  H   H21       1.0  0.63423  0.82398  0.40932  1.0000
  S   S6        1.0  0.42507  0.74913  0.45836  1.0000
  S   S7        1.0  0.78821  0.71646  0.39165  1.0000
  H   H22       1.0  0.61131  0.88607  0.48389  1.0000
  C   C14       1.0  0.61026  0.67101  0.35100  1.0000
  S   S8        1.0  0.55213  0.59347  0.53919  1.0000
  C   C15       1.0  0.69229  0.73702  0.55754  1.0000
  H   H23       1.0  0.67503  0.69370  0.56466  1.0000
  H   H24       1.0  0.73310  0.75145  0.52427  1.0000
  H   H25       1.0  0.70900  0.80181  0.74842  1.0000
  C   C16       1.0  0.56574  0.89473  0.60086  1.0000
  H   H26       1.0  0.71913  0.72240  0.61425  1.0000
  H   H27       1.0  0.83302  0.76593  0.77674  1.0000
  H   H28       1.0  0.45024  0.75697  0.71050  1.0000
  H   H29       1.0  0.40030  0.63179  0.75063  1.0000
  C   C17       1.0  0.67784  0.84290  0.69502  1.0000
  C   C18       1.0  0.70819  0.89757  0.65263  1.0000
  S   S9        1.0  0.79224  0.90193  0.69310  1.0000
  C   C19       1.0  0.82142  0.68923  0.76724  1.0000
  C   C20       1.0  0.83484  0.71502  0.80688  1.0000
  H   H30       1.0  0.47323  0.66466  0.70966  1.0000
  H   H31       1.0  0.80932  0.72050  0.70677  1.0000
  C   C21       1.0  0.60680  0.84147  0.66933  1.0000
  S   S10       1.0  0.81042  0.59104  0.75599  1.0000
  H   H32       1.0  0.61612  0.90291  0.75306  1.0000
  C   C22       1.0  0.45840  0.63368  0.76403  1.0000
  C   C23       1.0  0.43444  0.72455  0.76421  1.0000
  H   H33       1.0  0.44446  0.74471  0.79610  1.0000
  H   H34       1.0  0.48778  0.58441  0.79519  1.0000
  H   H35       1.0  0.37576  0.72594  0.74927  1.0000
  N   N3        1.0  0.47355  0.65871  0.80818  1.0000
  C   C24       1.0  0.82527  0.62321  0.80589  1.0000
  H   H36       1.0  0.57136  0.68790  0.77596  1.0000
  C   C25       1.0  0.39374  0.91451  0.78114  1.0000
  H   H37       1.0  0.58317  0.79972  0.70337  1.0000
  C   C26       1.0  0.65036  0.91111  0.79116  1.0000
  H   H38       1.0  0.60279  0.75615  0.62302  1.0000
  S   S11       1.0  0.47549  0.89335  0.57296  1.0000
  H   H39       1.0  0.42739  0.87196  0.79538  1.0000
  H   H40       1.0  0.55886  0.72536  0.57544  1.0000
  H   H41       1.0  0.72302  0.75736  0.93598  1.0000
  H   H42       1.0  0.58205  0.60921  0.86213  1.0000
  H   H43       1.0  0.73025  0.82150  0.97770  1.0000
  C   C27       1.0  0.71289  0.86564  0.91890  1.0000
  H   H44       1.0  0.75000  0.81345  0.85152  1.0000
  S   S12       1.0  0.86088  0.70991  0.93260  1.0000
  N   N4        1.0  0.66631  0.85360  0.87002  1.0000
  C   C28       1.0  0.45012  0.61751  0.87800  1.0000
  Fe  Fe3       1.0  0.39866  0.72064  0.99613  1.0000
  H   H45       1.0  0.56385  0.67760  0.86006  1.0000
  H   H46       1.0  0.63817  0.68484  0.96438  1.0000
  S   S13       1.0  0.48988  0.72214  0.94777  1.0000
  C   C29       1.0  0.38020  0.88989  0.03967  1.0000
  C   C30       1.0  0.55113  0.65855  0.82710  1.0000
  C   C31       1.0  0.55885  0.66604  0.02642  1.0000
  C   C32       1.0  0.62793  0.65936  0.01922  1.0000
  H   H47       1.0  0.60930  0.79485  0.95340  1.0000
  C   C33       1.0  0.85557  0.60932  0.92366  1.0000
  H   H48       1.0  0.56876  0.87719  0.88759  1.0000
  C   C34       1.0  0.70316  0.79994  0.87654  1.0000
  H   H49       1.0  0.45981  0.63492  0.91282  1.0000
  C   C35       1.0  0.41861  0.88615  0.99566  1.0000
  H   H50       1.0  0.76168  0.88307  0.89913  1.0000
  H   H51       1.0  0.39462  0.87240  0.96092  1.0000
  H   H52       1.0  0.68452  0.90152  0.92119  1.0000
  H   H53       1.0  0.51749  0.89718  0.96235  1.0000
  H   H54       1.0  0.39211  0.61504  0.86644  1.0000
  C   C36       1.0  0.48817  0.90004  0.99655  1.0000
  H   H55       1.0  0.66720  0.78459  0.84731  1.0000
  C   C37       1.0  0.85020  0.67535  0.88509  1.0000
  H   H56       1.0  0.56361  0.82573  0.85958  1.0000
  C   C38       1.0  0.59905  0.83718  0.89364  1.0000
  C   C39       1.0  0.52035  0.91606  0.04294  1.0000
  C   C40       1.0  0.84338  0.58315  0.88423  1.0000
  H   H57       1.0  0.80705  0.16378  0.29393  1.0000
  S   S14       1.0  0.59107  0.97267  0.31365  1.0000
  C   C41       1.0  0.52635  0.05981  0.16598  1.0000
  S   S15       1.0  0.52100  0.19392  0.31188  1.0000
  C   C42       1.0  0.77617  0.16535  0.24621  1.0000
  C   C43       1.0  0.85625  0.14160  0.10409  1.0000
  C   C44       1.0  0.48180  0.92071  0.08639  1.0000
  Fe  Fe4       1.0  0.65494  0.93562  0.26984  1.0000
  C   C45       1.0  0.84486  0.08669  0.10910  1.0000
  N   N5        1.0  0.75327  0.10340  0.27204  1.0000
  H   H58       1.0  0.55152  0.08974  0.29438  1.0000
  C   C46       1.0  0.53790  0.09879  0.24038  1.0000
  C   C47       1.0  0.50415  0.17363  0.10504  1.0000
  H   H59       1.0  0.66279  0.12029  0.30374  1.0000
  S   S16       1.0  0.67748  0.00003  0.15662  1.0000
  H   H60       1.0  0.72951  0.20430  0.21690  1.0000
  C   C48       1.0  0.54540  0.04807  0.23566  1.0000
  C   C49       1.0  0.70830  0.10921  0.20752  1.0000
  C   C50       1.0  0.50540  0.12250  0.10099  1.0000
  H   H61       1.0  0.85037  0.06694  0.26650  1.0000
  C   C51       1.0  0.81653  0.05386  0.30619  1.0000
  Fe  Fe5       1.0  0.79093  0.95204  0.21611  1.0000
  H   H62       1.0  0.68750  0.06419  0.22577  1.0000
  C   C52       1.0  0.51732  0.16184  0.17484  1.0000
  H   H63       1.0  0.81081  0.17886  0.20691  1.0000
  H   H64       1.0  0.52932  0.02050  0.16224  1.0000
  H   H65       1.0  0.51467  0.20116  0.17847  1.0000
  Fe  Fe6       1.0  0.66324  0.91891  0.14960  1.0000
  H   H66       1.0  0.50601  0.93384  0.12171  1.0000
  H   H67       1.0  0.73858  0.12012  0.16556  1.0000
  H   H68       1.0  0.66149  0.14796  0.17845  1.0000
  H   H69       1.0  0.64781  0.23175  0.26697  1.0000
  Fe  Fe7       1.0  0.44543  0.12784  0.36776  1.0000
  C   C53       1.0  0.68371  0.16134  0.47652  1.0000
  C   C54       1.0  0.73636  0.18854  0.43742  1.0000
  C   C55       1.0  0.61824  0.15834  0.44006  1.0000
  S   S17       1.0  0.43102  0.04674  0.36054  1.0000
  H   H70       1.0  0.41627  0.14566  0.55588  1.0000
  H   H71       1.0  0.69117  0.99282  0.54972  1.0000
  H   H72       1.0  0.56544  0.98976  0.50288  1.0000
  S   S18       1.0  0.81331  0.20334  0.47603  1.0000
  Fe  Fe8       1.0  0.42053  0.99283  0.47834  1.0000
  H   H73       1.0  0.53082  0.22747  0.56777  1.0000
  H   H74       1.0  0.53574  0.17898  0.53607  1.0000
  H   H75       1.0  0.44080  0.20269  0.42938  1.0000
  H   H76       1.0  0.69357  0.14247  0.53473  1.0000
  C   C56       1.0  0.60518  0.18474  0.36408  1.0000
  C   C57       1.0  0.40214  0.19226  0.54526  1.0000
  C   C58       1.0  0.59663  0.94877  0.55665  1.0000
  S   S19       1.0  0.44317  0.07149  0.48824  1.0000
  H   H77       1.0  0.57723  0.13792  0.46970  1.0000
  C   C59       1.0  0.51450  0.22702  0.51851  1.0000
  Fe  Fe9       1.0  0.78863  0.24049  0.53818  1.0000
  H   H78       1.0  0.74364  0.08196  0.37693  1.0000
  C   C60       1.0  0.72466  0.21033  0.36326  1.0000
  H   H79       1.0  0.69501  0.03782  0.35012  1.0000
  H   H80       1.0  0.85040  0.04716  0.35609  1.0000
  N   N6        1.0  0.43613  0.24258  0.48903  1.0000
  C   C61       1.0  0.41760  0.24673  0.42004  1.0000
  C   C62       1.0  0.65850  0.21039  0.32603  1.0000
  C   C63       1.0  0.71203  0.08500  0.32828  1.0000
  H   H81       1.0  0.80098  0.00700  0.32417  1.0000
  H   H82       1.0  0.76508  0.23073  0.33309  1.0000
  S   S20       1.0  0.86895  0.94778  0.51431  1.0000
  H   H83       1.0  0.62758  0.20363  0.70260  1.0000
  C   C64       1.0  0.67372  0.10440  0.78665  1.0000
  Fe  Fe10      1.0  0.76713  0.20359  0.68622  1.0000
  H   H84       1.0  0.55567  0.20257  0.80792  1.0000
  C   C65       1.0  0.37580  0.97088  0.64783  1.0000
  C   C66       1.0  0.53357  0.08018  0.76877  1.0000
  S   S21       1.0  0.69323  0.22136  0.58546  1.0000
  H   H85       1.0  0.41840  0.18461  0.59962  1.0000
  H   H86       1.0  0.42944  0.94785  0.77960  1.0000
  H   H87       1.0  0.40918  0.00646  0.64391  1.0000
  H   H88       1.0  0.62219  0.95280  0.78330  1.0000
  S   S22       1.0  0.86432  0.21545  0.64222  1.0000
  S   S23       1.0  0.76095  0.11934  0.79909  1.0000
  C   C67       1.0  0.54731  0.14285  0.72594  1.0000
  H   H89       1.0  0.70006  0.92500  0.77143  1.0000
  H   H90       1.0  0.50401  0.18224  0.68743  1.0000
  C   C68       1.0  0.61739  0.15496  0.73468  1.0000
  S   S24       1.0  0.44650  0.06360  0.75959  1.0000
  C   C69       1.0  0.66810  0.95017  0.58255  1.0000
  H   H91       1.0  0.41094  0.93210  0.65559  1.0000
  C   C70       1.0  0.58986  0.02986  0.82098  1.0000
  H   H92       1.0  0.74981  0.15781  0.92989  1.0000
  H   H93       1.0  0.53960  0.05468  0.02924  1.0000
  C   C71       1.0  0.80448  0.09242  0.04690  1.0000
  H   H94       1.0  0.62016  0.20056  0.91747  1.0000
  H   H95       1.0  0.37646  0.19947  0.96690  1.0000
  C   C72       1.0  0.78724  0.20801  0.97469  1.0000
  H   H96       1.0  0.61147  0.13878  0.00967  1.0000
  H   H97       1.0  0.65657  0.06139  0.99169  1.0000
  C   C73       1.0  0.52067  0.17244  0.84449  1.0000
  H   H98       1.0  0.49145  0.13162  0.04745  1.0000
  H   H99       1.0  0.49647  0.05576  0.95165  1.0000
  C   C74       1.0  0.77715  0.15316  0.97923  1.0000
  C   C75       1.0  0.82530  0.20203  0.03781  1.0000
  H   H100      1.0  0.46239  0.11432  0.96038  1.0000
  C   C76       1.0  0.58302  0.16912  0.94929  1.0000
  H   H101      1.0  0.53678  0.20063  0.94108  1.0000
  H   H102      1.0  0.83049  0.24399  0.03590  1.0000
  H   H103      1.0  0.70349  0.00360  0.87178  1.0000
  H   H104      1.0  0.60690  0.05759  0.92033  1.0000
  H   H105      1.0  0.57866  0.98193  0.85666  1.0000
  N   N7        1.0  0.55987  0.12997  0.92406  1.0000
  C   C77       1.0  0.51252  0.08702  0.96854  1.0000
  H   H106      1.0  0.65701  0.12112  0.89540  1.0000
  H   H107      1.0  0.79613  0.05003  0.05036  1.0000
  S   S25       1.0  0.60901  0.92948  0.04601  1.0000
  C   C78       1.0  0.62304  0.09109  0.93323  1.0000
  C   C79       1.0  0.65995  0.04199  0.83005  1.0000
  H   H108      1.0  0.86527  0.18133  0.86962  1.0000
  H   H109      1.0  0.47530  0.20497  0.83518  1.0000
  H   H110      1.0  0.49771  0.14446  0.82545  1.0000
  H   H111      1.0  0.52159  0.35892  0.29361  1.0000
  H   H112      1.0  0.64153  0.47469  0.18090  1.0000
  H   H113      1.0  0.57789  0.32370  0.26849  1.0000
  C   C80       1.0  0.57795  0.34140  0.30257  1.0000
  H   H114      1.0  0.59312  0.42328  0.16846  1.0000
  H   H115      1.0  0.44016  0.45020  0.16205  1.0000
  C   C81       1.0  0.69820  0.36444  0.30258  1.0000
  H   H116      1.0  0.73340  0.40105  0.29004  1.0000
  C   C82       1.0  0.41000  0.44918  0.19752  1.0000
  C   C83       1.0  0.41409  0.49462  0.21125  1.0000
  C   C84       1.0  0.60065  0.44313  0.20064  1.0000
  Fe  Fe11      1.0  0.84118  0.56369  0.19956  1.0000
  H   H117      1.0  0.55827  0.44119  0.30798  1.0000
  H   H118      1.0  0.70648  0.34598  0.27061  1.0000
  S   S26       1.0  0.52250  0.33437  0.12796  1.0000
  H   H119      1.0  0.44586  0.53175  0.18426  1.0000
  N   N8        1.0  0.62258  0.39189  0.28220  1.0000
  H   H120      1.0  0.64936  0.45408  0.31291  1.0000
  H   H121      1.0  0.86393  0.39144  0.23737  1.0000
  S   S27       1.0  0.74045  0.53694  0.23540  1.0000
  C   C85       1.0  0.71369  0.37877  0.08950  1.0000
  C   C86       1.0  0.78234  0.34523  0.11081  1.0000
  H   H122      1.0  0.59037  0.56474  0.21631  1.0000
  H   H123      1.0  0.55032  0.47437  0.18400  1.0000
  C   C87       1.0  0.83295  0.44025  0.07529  1.0000
  H   H124      1.0  0.78884  0.29656  0.12918  1.0000
  C   C88       1.0  0.84195  0.37616  0.10326  1.0000
  Fe  Fe12      1.0  0.41191  0.37372  0.11599  1.0000
  C   C89       1.0  0.37653  0.49274  0.25885  1.0000
  S   S28       1.0  0.37076  0.55751  0.26240  1.0000
  H   H125      1.0  0.66761  0.35531  0.09314  1.0000
  H   H126      1.0  0.85902  0.28030  0.30326  1.0000
  H   H127      1.0  0.67085  0.51899  0.54876  1.0000
  C   C90       1.0  0.55586  0.53538  0.52328  1.0000
  Fe  Fe13      1.0  0.67852  0.32387  0.54135  1.0000
  H   H128      1.0  0.71656  0.32461  0.36331  1.0000
  H   H129      1.0  0.85395  0.32981  0.37049  1.0000
  C   C91       1.0  0.62597  0.45873  0.52090  1.0000
  H   H130      1.0  0.42364  0.30276  0.52325  1.0000
  H   H131      1.0  0.44841  0.45821  0.47340  1.0000
  S   S29       1.0  0.76818  0.34544  0.48451  1.0000
  H   H132      1.0  0.43548  0.34351  0.43060  1.0000
  H   H133      1.0  0.67741  0.43663  0.52732  1.0000
  C   C92       1.0  0.41033  0.30442  0.47225  1.0000
  C   C93       1.0  0.49700  0.47140  0.48985  1.0000
  H   H134      1.0  0.43858  0.28663  0.37467  1.0000
  C   C94       1.0  0.56337  0.44102  0.50026  1.0000
  H   H135      1.0  0.62803  0.37977  0.38482  1.0000
  S   S30       1.0  0.56769  0.38010  0.48907  1.0000
  C   C95       1.0  0.62222  0.50568  0.53260  1.0000
  H   H136      1.0  0.59722  0.29969  0.36244  1.0000
  C   C96       1.0  0.49333  0.51820  0.50178  1.0000
  H   H137      1.0  0.44206  0.54049  0.49483  1.0000
  H   H138      1.0  0.54154  0.26270  0.47582  1.0000
  C   C97       1.0  0.61419  0.41803  0.32355  1.0000
  H   H139      1.0  0.55645  0.58147  0.34248  1.0000
  S   S31       1.0  0.86366  0.42799  0.79201  1.0000
  H   H140      1.0  0.48631  0.48661  0.77243  1.0000
  H   H141      1.0  0.64359  0.38249  0.75419  1.0000
  Fe  Fe14      1.0  0.83678  0.31914  0.59248  1.0000
  H   H142      1.0  0.62395  0.46799  0.68867  1.0000
  H   H143      1.0  0.55930  0.42087  0.68571  1.0000
  H   H144      1.0  0.41833  0.41504  0.66619  1.0000
  N   N9        1.0  0.56938  0.42742  0.77703  1.0000
  H   H145      1.0  0.46930  0.48123  0.69612  1.0000
  C   C98       1.0  0.60040  0.42448  0.72419  1.0000
  H   H146      1.0  0.65042  0.47667  0.79237  1.0000
  H   H147      1.0  0.49811  0.36154  0.78913  1.0000
  S   S32       1.0  0.37170  0.30455  0.78324  1.0000
  H   H148      1.0  0.53281  0.52876  0.69914  1.0000
  S   S33       1.0  0.74560  0.30465  0.64612  1.0000
  C   C99       1.0  0.51198  0.48345  0.73453  1.0000
  Fe  Fe15      1.0  0.85099  0.48571  0.83410  1.0000
  Fe  Fe16      1.0  0.47008  0.32781  0.03602  1.0000
  H   H149      1.0  0.66893  0.39127  0.85948  1.0000
  S   S34       1.0  0.75552  0.28391  0.88929  1.0000
  H   H150      1.0  0.84671  0.53204  0.91462  1.0000
  Fe  Fe17      1.0  0.82642  0.35025  0.89063  1.0000
  Fe  Fe18      1.0  0.37780  0.45828  0.94528  1.0000
  Fe  Fe19      1.0  0.52819  0.43525  0.03491  1.0000
  H   H151      1.0  0.51525  0.36888  0.86388  1.0000
  H   H152      1.0  0.60417  0.43658  0.86578  1.0000
  S   S35       1.0  0.42138  0.47541  0.02887  1.0000
  C   C100      1.0  0.62560  0.43343  0.82569  1.0000
  S   S36       1.0  0.48463  0.42585  0.94406  1.0000
  S   S37       1.0  0.80283  0.41179  0.92506  1.0000
  H   H153      1.0  0.75775  0.52393  0.03065  1.0000
  S   S38       1.0  0.49006  0.25133  0.02193  1.0000
  S   S39       1.0  0.61950  0.48856  0.02654  1.0000
  H   H154      1.0  0.58245  0.32536  0.85742  1.0000
  C   C101      1.0  0.70478  0.44348  0.06000  1.0000
  H   H155      1.0  0.48020  0.56812  0.91268  1.0000
  H   H156      1.0  0.86837  0.57844  0.98375  1.0000
  C   C102      1.0  0.76461  0.47376  0.05415  1.0000
  C   C103      1.0  0.53999  0.36828  0.82383  1.0000
  H   H157      1.0  0.16640  0.86455  0.21637  1.0000
  H   H158      1.0  0.02044  0.82517  0.12504  1.0000
  Fe  Fe20      1.0  0.96133  0.63591  0.19704  1.0000
  C   C104      1.0  0.16412  0.80270  0.15407  1.0000
  S   S40       1.0  0.00836  0.69318  0.23393  1.0000
  H   H159      1.0  0.99500  0.77085  0.28434  1.0000
  Fe  Fe21      1.0  0.34996  0.64193  0.14164  1.0000
  S   S41       1.0  0.00508  0.62341  0.12161  1.0000
  C   C105      1.0  0.95111  0.69623  0.28344  1.0000
  H   H160      1.0  0.15999  0.63627  0.27204  1.0000
  H   H161      1.0  0.89516  0.62284  0.29112  1.0000
  S   S42       1.0  0.31354  0.84960  0.24929  1.0000
  H   H162      1.0  0.17046  0.80015  0.10816  1.0000
  H   H163      1.0  0.09187  0.82290  0.22943  1.0000
  C   C106      1.0  0.30699  0.91553  0.30780  1.0000
  H   H164      1.0  0.25429  0.60881  0.29727  1.0000
  H   H165      1.0  0.21899  0.79914  0.18398  1.0000
  S   S43       1.0  0.24401  0.70507  0.08915  1.0000
  C   C107      1.0  0.89939  0.65623  0.30429  1.0000
  H   H166      1.0  0.14169  0.76009  0.19393  1.0000
  C   C108      1.0  0.95531  0.73980  0.30029  1.0000
  N   N10       1.0  0.11834  0.86274  0.12449  1.0000
  C   C109      1.0  0.11321  0.86496  0.18704  1.0000
  H   H167      1.0  0.05228  0.91146  0.31728  1.0000
  C   C110      1.0  0.04616  0.86543  0.08585  1.0000
  H   H168      1.0  0.07782  0.90892  0.16709  1.0000
  H   H169      1.0  0.20639  0.91413  0.09726  1.0000
  C   C111      1.0  0.20541  0.60000  0.31896  1.0000
  Fe  Fe22      1.0  0.34380  0.72181  0.52601  1.0000
  H   H170      1.0  0.06603  0.63260  0.54167  1.0000
  C   C112      1.0  0.12054  0.74605  0.56120  1.0000
  H   H171      1.0  0.10527  0.87044  0.41160  1.0000
  S   S44       1.0  0.25299  0.74372  0.43282  1.0000
  C   C113      1.0  0.90616  0.74486  0.33546  1.0000
  H   H172      1.0  0.00036  0.61551  0.45142  1.0000
  S   S45       1.0  0.00083  0.80524  0.55837  1.0000
  S   S46       1.0  0.35732  0.66333  0.40540  1.0000
  H   H173      1.0  0.21341  0.60848  0.36216  1.0000
  H   H174      1.0  0.08442  0.72545  0.54112  1.0000
  H   H175      1.0  0.93467  0.65927  0.50097  1.0000
  H   H176      1.0  0.90792  0.78005  0.34627  1.0000
  Fe  Fe23      1.0  0.28292  0.64155  0.47912  1.0000
  C   C114      1.0  0.09623  0.91519  0.35348  1.0000
  H   H177      1.0  0.33020  0.87096  0.36181  1.0000
  Fe  Fe24      1.0  0.33577  0.76368  0.36868  1.0000
  C   C115      1.0  0.93129  0.60902  0.54626  1.0000
  H   H178      1.0  0.88131  0.59740  0.52611  1.0000
  H   H179      1.0  0.21501  0.69896  0.56419  1.0000
  H   H180      1.0  0.14985  0.70202  0.76416  1.0000
  C   C116      1.0  0.99656  0.63948  0.79116  1.0000
  H   H181      1.0  0.13895  0.62964  0.72847  1.0000
  H   H182      1.0  0.12103  0.84011  0.61871  1.0000
  H   H183      1.0  0.08525  0.71040  0.80651  1.0000
  H   H184      1.0  0.25060  0.82084  0.63171  1.0000
  N   N11       1.0  0.07244  0.63865  0.78879  1.0000
  H   H185      1.0  0.96115  0.67857  0.73563  1.0000
  S   S47       1.0  0.33196  0.75181  0.59826  1.0000
  S   S48       1.0  0.97205  0.85634  0.68408  1.0000
  C   C117      1.0  0.09290  0.70054  0.76665  1.0000
  H   H186      1.0  0.97853  0.59386  0.80699  1.0000
  C   C118      1.0  0.09354  0.78688  0.57516  1.0000
  H   H187      1.0  0.27123  0.87674  0.76069  1.0000
  H   H188      1.0  0.32857  0.85989  0.71852  1.0000
  H   H189      1.0  0.05928  0.74058  0.71123  1.0000
  C   C119      1.0  0.96974  0.90174  0.81803  1.0000
  H   H190      1.0  0.04717  0.66439  0.67768  1.0000
  C   C120      1.0  0.08276  0.62764  0.73405  1.0000
  C   C121      1.0  0.21446  0.79956  0.61257  1.0000
  H   H191      1.0  0.92519  0.60736  0.59503  1.0000
  C   C122      1.0  0.14078  0.81184  0.60329  1.0000
  C   C123      1.0  0.29604  0.89900  0.71241  1.0000
  H   H192      1.0  0.91238  0.90773  0.79190  1.0000
  C   C124      1.0  0.24110  0.76101  0.59536  1.0000
  H   H193      1.0  0.99932  0.91247  0.77580  1.0000
  Fe  Fe25      1.0  0.97307  0.88041  0.57283  1.0000
  S   S49       1.0  0.36867  0.61850  0.57658  1.0000
  C   C125      1.0  0.19432  0.73216  0.57269  1.0000
  H   H194      1.0  0.05898  0.58339  0.63733  1.0000
  C   C126      1.0  0.05980  0.58385  0.58835  1.0000
  H   H195      1.0  0.95105  0.85652  0.95316  1.0000
  Fe  Fe26      1.0  0.24393  0.70294  0.99211  1.0000
  H   H196      1.0  0.02101  0.62342  0.95611  1.0000
  H   H197      1.0  0.98694  0.64723  0.83237  1.0000
  C   C127      1.0  0.99276  0.79026  0.87037  1.0000
  N   N12       1.0  0.99606  0.83646  0.88790  1.0000
  S   S50       1.0  0.29610  0.78971  0.93204  1.0000
  H   H198      1.0  0.09113  0.78306  0.97731  1.0000
  H   H199      1.0  0.11485  0.59571  0.90493  1.0000
  H   H200      1.0  0.07713  0.86791  0.93363  1.0000
  H   H201      1.0  0.10697  0.83860  0.88720  1.0000
  Fe  Fe27      1.0  0.89232  0.64443  0.05774  1.0000
  H   H202      1.0  0.03255  0.79506  0.83864  1.0000
  H   H203      1.0  0.96837  0.77294  0.99278  1.0000
  C   C128      1.0  0.12893  0.60974  0.01580  1.0000
  C   C129      1.0  0.95056  0.82208  0.93955  1.0000
  C   C130      1.0  0.06196  0.59212  0.00762  1.0000
  S   S51       1.0  0.34597  0.63435  0.04759  1.0000
  Fe  Fe28      1.0  0.30496  0.78590  0.03454  1.0000
  H   H204      1.0  0.93902  0.79717  0.83612  1.0000
  S   S52       1.0  0.29625  0.86574  0.04371  1.0000
  C   C131      1.0  0.07092  0.83140  0.92341  1.0000
  H   H205      1.0  0.04836  0.86238  0.03954  1.0000
  S   S53       1.0  0.14661  0.68315  0.94311  1.0000
  H   H206      1.0  0.00473  0.74012  0.92216  1.0000
  H   H207      1.0  0.89415  0.82452  0.91426  1.0000
  C   C132      1.0  0.11766  0.58695  0.86336  1.0000
  H   H208      1.0  0.01070  0.91072  0.06170  1.0000
  H   H209      1.0  0.17491  0.58328  0.86240  1.0000
  H   H210      1.0  0.36805  0.89826  0.82793  1.0000
  H   H211      1.0  0.21963  0.91204  0.85954  1.0000
  H   H212      1.0  0.11479  0.03453  0.25069  1.0000
  H   H213      1.0  0.15758  0.22707  0.22916  1.0000
  H   H214      1.0  0.25563  0.98004  0.12283  1.0000
  S   S54       1.0  0.23932  0.09697  0.22748  1.0000
  H   H215      1.0  0.05440  0.07417  0.26839  1.0000
  C   C133      1.0  0.26007  0.02847  0.23331  1.0000
  H   H216      1.0  0.22136  0.07599  0.11489  1.0000
  H   H217      1.0  0.88717  0.13759  0.15196  1.0000
  C   C134      1.0  0.29423  0.91865  0.24303  1.0000
  C   C135      1.0  0.29140  0.97067  0.30277  1.0000
  H   H218      1.0  0.06274  0.14313  0.31637  1.0000
  H   H219      1.0  0.29515  0.16294  0.08668  1.0000
  S   S55       1.0  0.87822  0.01123  0.19428  1.0000
  C   C136      1.0  0.24542  0.03139  0.16866  1.0000
  H   H220      1.0  0.02140  0.03007  0.23429  1.0000
  C   C137      1.0  0.06669  0.03030  0.27247  1.0000
  C   C138      1.0  0.26412  0.97686  0.17330  1.0000
  S   S56       1.0  0.94550  0.11130  0.38666  1.0000
  S   S57       1.0  0.32891  0.16812  0.32453  1.0000
  Fe  Fe29      1.0  0.93655  0.02273  0.49544  1.0000
  S   S58       1.0  0.26036  0.13332  0.49444  1.0000
  H   H221      1.0  0.18781  0.97986  0.37984  1.0000
  H   H222      1.0  0.34283  0.20515  0.52673  1.0000
  S   S59       1.0  0.03986  0.95621  0.54706  1.0000
  H   H223      1.0  0.18810  0.14805  0.36150  1.0000
  C   C139      1.0  0.17082  0.13446  0.46018  1.0000
  S   S60       1.0  0.30163  0.02155  0.44370  1.0000
  C   C140      1.0  0.12116  0.12506  0.50164  1.0000
  H   H224      1.0  0.13735  0.11952  0.55364  1.0000
  Fe  Fe30      1.0  0.32516  0.10452  0.44435  1.0000
  H   H225      1.0  0.99745  0.01042  0.37387  1.0000
  C   C141      1.0  0.03006  0.12623  0.41094  1.0000
  H   H226      1.0  0.01351  0.11064  0.51113  1.0000
  C   C142      1.0  0.05112  0.11989  0.47762  1.0000
  H   H227      1.0  0.02007  0.92494  0.43498  1.0000
  H   H228      1.0  0.12589  0.01659  0.39964  1.0000
  C   C143      1.0  0.01275  0.96788  0.37622  1.0000
  C   C144      1.0  0.13798  0.97508  0.39914  1.0000
  H   H229      1.0  0.92475  0.22092  0.38701  1.0000
  C   C145      1.0  0.14956  0.14155  0.39304  1.0000
  C   C146      1.0  0.07877  0.13872  0.36758  1.0000
  N   N13       1.0  0.07840  0.97211  0.35032  1.0000
  H   H230      1.0  0.30367  0.96817  0.35291  1.0000
  H   H231      1.0  0.96694  0.96439  0.34148  1.0000
  Fe  Fe31      1.0  0.31390  0.08298  0.32607  1.0000
  H   H232      1.0  0.14947  0.93120  0.45807  1.0000
  H   H233      1.0  0.14590  0.91676  0.33468  1.0000
  S   S61       1.0  0.24711  0.14247  0.69150  1.0000
  Fe  Fe32      1.0  0.87311  0.92975  0.62476  1.0000
  H   H234      1.0  0.03596  0.10447  0.72639  1.0000
  Fe  Fe33      1.0  0.36215  0.13554  0.74066  1.0000
  C   C147      1.0  0.99935  0.23659  0.78103  1.0000
  S   S62       1.0  0.93249  0.01006  0.60125  1.0000
  Fe  Fe34      1.0  0.32901  0.23938  0.75749  1.0000
  N   N14       1.0  0.33974  0.94590  0.70920  1.0000
  H   H235      1.0  0.26817  0.98328  0.74199  1.0000
  S   S63       1.0  0.12868  0.92151  0.73795  1.0000
  C   C148      1.0  0.07356  0.02308  0.73199  1.0000
  S   S64       1.0  0.36070  0.24132  0.66661  1.0000
  Fe  Fe35      1.0  0.03121  0.93766  0.65408  1.0000
  H   H236      1.0  0.03370  0.18998  0.80911  1.0000
  C   C149      1.0  0.12600  0.96915  0.76885  1.0000
  Fe  Fe36      1.0  0.24419  0.24814  0.62461  1.0000
  H   H237      1.0  0.03390  0.03702  0.68267  1.0000
  Fe  Fe37      1.0  0.22439  0.14808  0.78095  1.0000
  C   C150      1.0  0.29330  0.99943  0.69511  1.0000
  H   H238      1.0  0.24922  0.02196  0.64355  1.0000
  H   H239      1.0  0.25172  0.92198  0.66091  1.0000
  C   C151      1.0  0.07462  0.06121  0.75692  1.0000
  H   H240      1.0  0.32376  0.03752  0.68803  1.0000
  H   H241      1.0  0.33607  0.99540  0.59301  1.0000
  H   H242      1.0  0.86951  0.20099  0.78097  1.0000
  C   C152      1.0  0.12849  0.04549  0.81829  1.0000
  H   H243      1.0  0.18970  0.18492  0.98613  1.0000
  H   H244      1.0  0.95706  0.20650  0.93589  1.0000
  C   C153      1.0  0.18032  0.99151  0.85519  1.0000
  H   H245      1.0  0.30049  0.21112  0.89902  1.0000
  N   N15       1.0  0.95055  0.23232  0.82604  1.0000
  H   H246      1.0  0.22355  0.98079  0.90068  1.0000
  C   C154      1.0  0.20067  0.23461  0.95014  1.0000
  C   C155      1.0  0.90278  0.18595  0.83572  1.0000
  C   C156      1.0  0.31865  0.19613  0.95725  1.0000
  H   H247      1.0  0.35796  0.21705  0.06163  1.0000
  C   C157      1.0  0.17850  0.95301  0.83119  1.0000
  H   H248      1.0  0.02665  0.16374  0.93047  1.0000
  H   H249      1.0  0.93337  0.13769  0.86356  1.0000
  H   H250      1.0  0.31314  0.14504  0.99626  1.0000
  H   H251      1.0  0.12001  0.96401  0.05095  1.0000
  C   C158      1.0  0.30092  0.21383  0.04684  1.0000
  N   N16       1.0  0.27755  0.23700  0.96809  1.0000
  C   C159      1.0  0.99259  0.21105  0.90030  1.0000
  S   S65       1.0  0.33985  0.13281  0.83596  1.0000
  C   C160      1.0  0.14989  0.91768  0.07110  1.0000
  S   S66       1.0  0.14014  0.09904  0.84018  1.0000
  H   H252      1.0  0.02821  0.24564  0.89503  1.0000
  H   H253      1.0  0.15112  0.91950  0.02110  1.0000
  H   H254      1.0  0.26955  0.24218  0.05782  1.0000
  H   H255      1.0  0.97570  0.93864  0.82772  1.0000
  C   C161      1.0  0.09571  0.38639  0.10479  1.0000
  H   H256      1.0  0.22771  0.29010  0.26420  1.0000
  H   H257      1.0  0.11973  0.43079  0.07915  1.0000
  H   H258      1.0  0.05518  0.39061  0.13131  1.0000
  S   S67       1.0  0.06835  0.44785  0.21821  1.0000
  C   C162      1.0  0.18437  0.33156  0.22228  1.0000
  C   C163      1.0  0.92291  0.37920  0.26025  1.0000
  N   N17       1.0  0.15070  0.32911  0.16009  1.0000
  C   C164      1.0  0.33261  0.39819  0.28097  1.0000
  H   H259      1.0  0.07688  0.27008  0.21932  1.0000
  S   S68       1.0  0.92485  0.33962  0.11336  1.0000
  H   H260      1.0  0.94707  0.37914  0.21953  1.0000
  H   H261      1.0  0.20379  0.48515  0.19704  1.0000
  C   C165      1.0  0.33766  0.44318  0.29591  1.0000
  H   H262      1.0  0.24898  0.28560  0.16440  1.0000
  C   C166      1.0  0.36823  0.40179  0.23079  1.0000
  C   C167      1.0  0.17907  0.52604  0.29034  1.0000
  C   C168      1.0  0.20565  0.32751  0.12373  1.0000
  C   C169      1.0  0.18077  0.56956  0.08339  1.0000
  H   H263      1.0  0.23171  0.37083  0.10064  1.0000
  H   H264      1.0  0.08861  0.26915  0.14370  1.0000
  C   C170      1.0  0.11708  0.27120  0.18949  1.0000
  S   S69       1.0  0.87534  0.54314  0.12602  1.0000
  H   H265      1.0  0.29984  0.36173  0.30702  1.0000
  H   H266      1.0  0.14494  0.33158  0.25210  1.0000
  H   H267      1.0  0.94061  0.41813  0.26265  1.0000
  S   S70       1.0  0.95051  0.53269  0.27586  1.0000
  H   H268      1.0  0.20845  0.37568  0.20145  1.0000
  H   H269      1.0  0.22415  0.53770  0.26293  1.0000
  Fe  Fe38      1.0  0.98558  0.52218  0.19477  1.0000
  H   H270      1.0  0.13023  0.55785  0.24573  1.0000
  C   C171      1.0  0.16510  0.51354  0.14368  1.0000
  C   C172      1.0  0.09693  0.49843  0.13725  1.0000
  H   H271      1.0  0.17227  0.47605  0.31251  1.0000
  H   H272      1.0  0.94401  0.25903  0.29668  1.0000
  H   H273      1.0  0.18248  0.32480  0.07718  1.0000
  S   S71       1.0  0.36254  0.34624  0.21116  1.0000
  H   H274      1.0  0.23196  0.58264  0.09123  1.0000
  H   H275      1.0  0.04790  0.30013  0.32302  1.0000
  H   H276      1.0  0.15636  0.40146  0.54636  1.0000
  H   H277      1.0  0.13614  0.52498  0.42892  1.0000
  C   C173      1.0  0.10826  0.38204  0.54254  1.0000
  C   C174      1.0  0.04993  0.39423  0.56335  1.0000
  C   C175      1.0  0.91693  0.26708  0.33036  1.0000
  C   C176      1.0  0.04532  0.31403  0.51976  1.0000
  H   H278      1.0  0.26356  0.49276  0.45733  1.0000
  N   N18       1.0  0.19135  0.53450  0.35010  1.0000
  H   H279      1.0  0.95138  0.54993  0.48312  1.0000
  H   H280      1.0  0.30300  0.49471  0.39091  1.0000
  S   S72       1.0  0.18252  0.31905  0.50600  1.0000
  C   C177      1.0  0.10570  0.34232  0.52011  1.0000
  H   H281      1.0  0.04514  0.33865  0.36698  1.0000
  H   H282      1.0  0.93061  0.35981  0.39019  1.0000
  C   C178      1.0  0.12719  0.52414  0.37974  1.0000
  H   H283      1.0  0.24474  0.43786  0.43568  1.0000
  H   H284      1.0  0.11175  0.47727  0.39747  1.0000
  C   C179      1.0  0.98913  0.36657  0.56217  1.0000
  N   N19       1.0  0.94404  0.31722  0.33506  1.0000
  H   H285      1.0  0.35127  0.31791  0.44971  1.0000
  S   S73       1.0  0.20306  0.57511  0.50356  1.0000
  C   C180      1.0  0.91319  0.32079  0.38746  1.0000
  H   H286      1.0  0.04731  0.53556  0.51209  1.0000
  H   H287      1.0  0.92955  0.27522  0.44514  1.0000
  H   H288      1.0  0.04038  0.25496  0.41788  1.0000
  C   C181      1.0  0.99842  0.56636  0.50034  1.0000
  H   H289      1.0  0.35184  0.52098  0.55608  1.0000
  H   H290      1.0  0.35876  0.25382  0.39891  1.0000
  C   C182      1.0  0.25345  0.48784  0.41115  1.0000
  C   C183      1.0  0.02277  0.30206  0.36192  1.0000
  C   C184      1.0  0.98657  0.32691  0.53964  1.0000
  H   H291      1.0  0.30899  0.44087  0.33352  1.0000
  N   N20       1.0  0.99466  0.56450  0.56593  1.0000
  H   H292      1.0  0.04535  0.27995  0.50745  1.0000
  H   H293      1.0  0.94012  0.30490  0.53918  1.0000
  H   H294      1.0  0.08081  0.56180  0.33702  1.0000
  C   C185      1.0  0.25044  0.39230  0.68967  1.0000
  S   S74       1.0  0.21213  0.25414  0.71016  1.0000
  H   H295      1.0  0.94086  0.48276  0.61267  1.0000
  H   H296      1.0  0.05289  0.42319  0.58274  1.0000
  H   H297      1.0  0.22169  0.35647  0.72648  1.0000
  H   H298      1.0  0.14607  0.44621  0.72807  1.0000
  H   H299      1.0  0.23727  0.51173  0.72741  1.0000
  S   S75       1.0  0.91829  0.37886  0.59286  1.0000
  H   H300      1.0  0.03482  0.27260  0.77063  1.0000
  C   C186      1.0  0.24942  0.49891  0.57924  1.0000
  H   H301      1.0  0.98483  0.49611  0.67864  1.0000
  H   H302      1.0  0.94170  0.33224  0.77740  1.0000
  H   H303      1.0  0.10876  0.55139  0.60371  1.0000
  H   H304      1.0  0.07095  0.57987  0.75146  1.0000
  C   C187      1.0  0.36139  0.42592  0.65682  1.0000
  C   C188      1.0  0.98884  0.49910  0.62854  1.0000
  C   C189      1.0  0.32365  0.48561  0.59396  1.0000
  C   C190      1.0  0.21106  0.48728  0.77292  1.0000
  C   C191      1.0  0.21272  0.45161  0.62598  1.0000
  H   H305      1.0  0.03601  0.46402  0.64620  1.0000
  C   C192      1.0  0.32495  0.37979  0.70576  1.0000
  C   C193      1.0  0.15952  0.45048  0.77307  1.0000
  H   H306      1.0  0.15533  0.46089  0.61373  1.0000
  C   C194      1.0  0.90734  0.29572  0.78718  1.0000
  H   H307      1.0  0.96943  0.25081  0.72540  1.0000
  H   H308      1.0  0.87434  0.31281  0.73139  1.0000
  H   H309      1.0  0.87036  0.29453  0.81976  1.0000
  C   C195      1.0  0.04596  0.53635  0.06853  1.0000
  H   H310      1.0  0.21549  0.45736  0.94091  1.0000
  H   H311      1.0  0.27034  0.32336  0.85788  1.0000
  H   H312      1.0  0.10052  0.54010  0.88419  1.0000
  C   C196      1.0  0.23112  0.48972  0.83347  1.0000
  S   S76       1.0  0.93643  0.30682  0.96667  1.0000
  H   H313      1.0  0.18096  0.25304  0.89061  1.0000
  H   H314      1.0  0.26232  0.33534  0.92652  1.0000
  H   H315      1.0  0.06657  0.38475  0.05898  1.0000
  C   C197      1.0  0.19887  0.45636  0.89340  1.0000
  S   S77       1.0  0.35922  0.35959  0.03069  1.0000
  S   S78       1.0  0.96221  0.45115  0.90752  1.0000
  H   H316      1.0  0.11887  0.39731  0.93719  1.0000
  H   H317      1.0  0.16829  0.26447  0.95853  1.0000
  C   C198      1.0  0.28988  0.30354  0.91782  1.0000
  S   S79       1.0  0.06103  0.37397  0.83020  1.0000
  Fe  Fe39      1.0  0.97196  0.38859  0.87109  1.0000
  Fe  Fe40      1.0  0.91502  0.37255  0.99612  1.0000
  C   C199      1.0  0.14445  0.42247  0.89139  1.0000
  H   H318      1.0  0.99249  0.52530  0.06392  1.0000
  S   S80       1.0  0.29968  0.53077  0.83694  1.0000
  C   C200      1.0  0.12561  0.41896  0.83152  1.0000
  H   H319      1.0  0.34770  0.30689  0.92719  1.0000
  H   H320      1.0  0.87864  0.46464  0.06724  1.0000
