data_image0
_chemical_formula_structural       HNSC3H5C2SFeCHCH2SCH5CSCHC3SCHFeCHSHC2SFeHSC2SHSC3HCNHFeC2HCH2CH2SCHCFeSHCSHCSC6HSC3HC2H4CH2CNC2HFeHCHCNH3FeC4H2NCSHCH4CHCFeSNSCSCHC2HFeCFeCSC6H5SHCH2CHSHCFeH2FeH2C2SCHCHCSH4NH4CHFeSH2SC6H4CHSC2HFeC2H2SNHCH5C2H2CSCFeSC2Fe2NS2H3C6H4FeHCH2CHCHNC6H6SHCHCSFeCSHS2HCFeSHFeS2FeH2SHSHC6H4NHCSCHSFeHCHCHC2SCH3SCHCHFeC5H2SFeHS2HC11H4NH3CH2CH2C2NC5H3S3FeCH2CSHCFeS2CFeHSCFeH2SCHNC6H2FeHCHC2HC3FeH2CNCH3C4NSH2CHC2S2HSCH3CSCHC2H2CFeSCSHCFeS2NHC6H5CHSHC4HCH2FeNCHC2HCH2CFeCHSCHCH2C3H3CHSC2SHFe2HSC2H2CHSCFeCH2CH3NSCH2S2CHCFeH2C2SHCSH2CSNH3FeH2CSHC3H2CHCHC2HCHCH2CSCH
_chemical_formula_sum              "H240 N20 S80 C240 Fe40"
_cell_length_a       41.2497
_cell_length_b       41.233
_cell_length_c       28.5169
_cell_angle_alpha    85.4049
_cell_angle_beta     85.7949
_cell_angle_gamma    120.929

_space_group_name_H-M_alt    "P 1"
_space_group_IT_number       1

loop_
  _space_group_symop_operation_xyz
  'x, y, z'

loop_
  _atom_site_type_symbol
  _atom_site_label
  _atom_site_symmetry_multiplicity
  _atom_site_fract_x
  _atom_site_fract_y
  _atom_site_fract_z
  _atom_site_occupancy
  H   H1        1.0  0.23665  0.44878  0.36313  1.0000
  N   N1        1.0  0.03340  0.31688  0.39577  1.0000
  S   S1        1.0  0.30087  0.43733  0.35918  1.0000
  C   C1        1.0  0.29446  0.47276  0.33063  1.0000
  C   C2        1.0  0.07200  0.32431  0.38330  1.0000
  C   C3        1.0  0.32155  0.27619  0.45313  1.0000
  H   H2        1.0  0.29594  0.48769  0.45439  1.0000
  H   H3        1.0  0.32409  0.27668  0.41503  1.0000
  H   H4        1.0  0.35096  0.50315  0.29155  1.0000
  H   H5        1.0  0.08572  0.34408  0.34953  1.0000
  H   H6        1.0  0.04678  0.34602  0.45673  1.0000
  C   C4        1.0  0.31644  0.02915  0.47321  1.0000
  C   C5        1.0  0.30613  0.29611  0.47407  1.0000
  S   S2        1.0  0.23360  0.33985  0.44691  1.0000
  Fe  Fe1       1.0  0.26368  0.40349  0.42819  1.0000
  C   C6        1.0  0.26035  0.47218  0.33969  1.0000
  H   H7        1.0  0.16507  0.25168  0.46860  1.0000
  C   C7        1.0  0.22142  0.21413  0.46196  1.0000
  H   H8        1.0  0.29680  0.31158  0.45212  1.0000
  H   H9        1.0  0.09045  0.33722  0.41126  1.0000
  S   S3        1.0  0.21386  0.40655  0.45804  1.0000
  C   C8        1.0  0.02525  0.33066  0.43412  1.0000
  H   H10       1.0  0.19488  0.23032  0.41018  1.0000
  H   H11       1.0  0.07093  0.29717  0.37948  1.0000
  H   H12       1.0  0.23526  0.20533  0.43653  1.0000
  H   H13       1.0  0.33356  0.05828  0.45578  1.0000
  H   H14       1.0  0.23022  0.50105  0.32471  1.0000
  C   C9        1.0  0.18235  0.24053  0.48041  1.0000
  S   S4        1.0  0.12722  0.29601  0.46788  1.0000
  C   C10       1.0  0.19899  0.22831  0.44719  1.0000
  H   H15       1.0  0.05326  0.23898  0.44872  1.0000
  C   C11       1.0  0.25669  0.50168  0.31766  1.0000
  C   C12       1.0  0.04904  0.25489  0.47434  1.0000
  C   C13       1.0  0.33347  0.25554  0.48112  1.0000
  S   S5        1.0  0.35107  0.22949  0.45321  1.0000
  C   C14       1.0  0.32460  0.50269  0.29896  1.0000
  H   H16       1.0  0.24124  0.49374  0.43539  1.0000
  Fe  Fe2       1.0  0.18532  0.34368  0.48300  1.0000
  C   C15       1.0  0.29067  0.47377  0.62747  1.0000
  H   H17       1.0  0.21597  0.22521  0.57822  1.0000
  S   S6        1.0  0.29254  0.41563  0.49382  1.0000
  H   H18       1.0  0.09910  0.32737  0.53796  1.0000
  C   C16       1.0  0.31147  0.49222  0.66407  1.0000
  C   C17       1.0  0.21022  0.22517  0.54169  1.0000
  S   S7        1.0  0.32772  0.05908  0.55887  1.0000
  Fe  Fe3       1.0  0.24124  0.41583  0.52531  1.0000
  H   H19       1.0  0.03330  0.31083  0.56679  1.0000
  S   S8        1.0  0.24814  0.46873  0.55403  1.0000
  C   C18       1.0  0.08085  0.28446  0.49123  1.0000
  C   C19       1.0  0.27195  0.48864  0.60296  1.0000
  S   S9        1.0  0.27983  0.31697  0.55206  1.0000
  H   H20       1.0  0.28942  0.44830  0.61799  1.0000
  S   S10       1.0  0.20827  0.35278  0.55319  1.0000
  C   C20       1.0  0.07495  0.30462  0.52456  1.0000
  C   C21       1.0  0.30218  0.29533  0.52339  1.0000
  C   C22       1.0  0.17128  0.25235  0.56154  1.0000
  H   H21       1.0  0.33902  0.23949  0.55240  1.0000
  C   C23       1.0  0.22681  0.21220  0.50957  1.0000
  N   N2        1.0  0.18846  0.23923  0.52688  1.0000
  H   H22       1.0  0.31144  0.27408  0.58947  1.0000
  Fe  Fe4       1.0  0.25804  0.35194  0.51536  1.0000
  C   C24       1.0  0.30842  0.02189  0.52277  1.0000
  C   C25       1.0  0.31436  0.27491  0.55130  1.0000
  H   H23       1.0  0.24508  0.20221  0.52116  1.0000
  C   C26       1.0  0.03760  0.29519  0.54081  1.0000
  H   H24       1.0  0.32625  0.48083  0.68251  1.0000
  H   H25       1.0  0.14886  0.22774  0.58701  1.0000
  C   C27       1.0  0.33001  0.25523  0.53035  1.0000
  H   H26       1.0  0.19354  0.27305  0.58136  1.0000
  H   H27       1.0  0.15804  0.26701  0.54422  1.0000
  S   S11       1.0  0.19403  0.81172  0.42484  1.0000
  C   C28       1.0  0.07463  0.73151  0.32736  1.0000
  H   H28       1.0  0.15398  0.71662  0.42927  1.0000
  C   C29       1.0  0.05140  0.70179  0.36385  1.0000
  Fe  Fe5       1.0  0.23036  0.78561  0.42839  1.0000
  S   S12       1.0  0.22864  0.74785  0.37366  1.0000
  H   H29       1.0  0.09720  0.78085  0.44577  1.0000
  C   C30       1.0  0.33916  0.58138  0.09483  1.0000
  S   S13       1.0  0.34054  0.67127  0.18291  1.0000
  H   H30       1.0  0.31988  0.57670  0.16877  1.0000
  C   C31       1.0  0.27671  0.56805  0.12475  1.0000
  S   S14       1.0  0.28272  0.56996  0.26218  1.0000
  C   C32       1.0  0.26089  0.52496  0.43493  1.0000
  C   C33       1.0  0.06816  0.69018  0.39687  1.0000
  C   C34       1.0  0.12996  0.73596  0.35688  1.0000
  C   C35       1.0  0.33821  0.78739  0.31651  1.0000
  C   C36       1.0  0.28732  0.53225  0.28718  1.0000
  C   C37       1.0  0.12381  0.69434  0.42782  1.0000
  H   H31       1.0  0.04994  0.66792  0.42606  1.0000
  S   S15       1.0  0.26745  0.92306  0.43265  1.0000
  C   C38       1.0  0.27016  0.75163  0.34453  1.0000
  C   C39       1.0  0.26654  0.72143  0.32106  1.0000
  C   C40       1.0  0.29862  0.72404  0.29574  1.0000
  H   H32       1.0  0.06194  0.74144  0.30236  1.0000
  C   C41       1.0  0.32122  0.53255  0.27772  1.0000
  C   C42       1.0  0.30625  0.78447  0.34265  1.0000
  H   H33       1.0  0.23874  0.69596  0.32224  1.0000
  H   H34       1.0  0.29539  0.70071  0.27756  1.0000
  H   H35       1.0  0.34488  0.55565  0.25402  1.0000
  H   H36       1.0  0.30938  0.80800  0.36029  1.0000
  C   C43       1.0  0.31387  0.51405  0.43039  1.0000
  H   H37       1.0  0.34470  0.67645  0.05879  1.0000
  H   H38       1.0  0.34994  0.58394  0.01952  1.0000
  C   C44       1.0  0.06965  0.75596  0.45959  1.0000
  N   N3        1.0  0.29987  0.53640  0.41609  1.0000
  C   C45       1.0  0.28109  0.96045  0.46821  1.0000
  C   C46       1.0  0.32228  0.56951  0.38541  1.0000
  H   H39       1.0  0.13259  0.77178  0.29539  1.0000
  Fe  Fe6       1.0  0.23979  0.85954  0.45898  1.0000
  H   H40       1.0  0.16075  0.74925  0.35357  1.0000
  C   C47       1.0  0.33454  0.75727  0.29283  1.0000
  H   H41       1.0  0.10835  0.68787  0.46417  1.0000
  C   C48       1.0  0.32900  0.57901  0.04891  1.0000
  N   N4        1.0  0.10698  0.70754  0.39338  1.0000
  H   H42       1.0  0.12315  0.66861  0.41763  1.0000
  H   H43       1.0  0.04021  0.76695  0.40682  1.0000
  H   H44       1.0  0.25624  0.56385  0.15444  1.0000
  Fe  Fe7       1.0  0.33739  0.62610  0.23647  1.0000
  C   C49       1.0  0.35085  0.52401  0.41278  1.0000
  C   C50       1.0  0.03723  0.74806  0.43765  1.0000
  C   C51       1.0  0.11418  0.74865  0.32362  1.0000
  C   C52       1.0  0.26761  0.56628  0.07829  1.0000
  H   H45       1.0  0.25998  0.53141  0.47195  1.0000
  H   H46       1.0  0.31104  0.58695  0.37326  1.0000
  N   N5        1.0  0.29361  0.57162  0.04113  1.0000
  C   C53       1.0  0.31264  0.57545  0.13291  1.0000
  S   S16       1.0  0.27826  0.83577  0.45537  1.0000
  H   H47       1.0  0.23964  0.56061  0.07212  1.0000
  C   C54       1.0  0.30270  0.99858  0.44614  1.0000
  H   H48       1.0  0.30939  0.00449  0.40787  1.0000
  H   H49       1.0  0.24983  0.53956  0.41271  1.0000
  H   H50       1.0  0.31080  0.66581  0.98771  1.0000
  H   H51       1.0  0.34857  0.93429  0.44737  1.0000
  C   C55       1.0  0.28281  0.56854  0.99305  1.0000
  H   H52       1.0  0.26021  0.53874  0.99040  1.0000
  C   C56       1.0  0.31389  0.52572  0.67626  1.0000
  Fe  Fe8       1.0  0.24773  0.80544  0.52812  1.0000
  S   S17       1.0  0.28206  0.80884  0.58788  1.0000
  N   N6        1.0  0.18228  0.69366  0.67262  1.0000
  S   S18       1.0  0.21152  0.83153  0.53331  1.0000
  C   C57       1.0  0.27234  0.95322  0.51769  1.0000
  S   S19       1.0  0.29882  0.60726  0.77380  1.0000
  C   C58       1.0  0.19118  0.66805  0.69965  1.0000
  H   H53       1.0  0.24436  0.67444  0.59419  1.0000
  C   C59       1.0  0.28587  0.98379  0.54474  1.0000
  C   C60       1.0  0.29430  0.53992  0.65259  1.0000
  H   H54       1.0  0.16862  0.65075  0.73015  1.0000
  Fe  Fe9       1.0  0.34761  0.60486  0.73766  1.0000
  C   C61       1.0  0.35152  0.65961  0.94359  1.0000
  Fe  Fe10      1.0  0.31761  0.65744  0.71789  1.0000
  C   C62       1.0  0.14327  0.70228  0.62044  1.0000
  S   S20       1.0  0.32541  0.65112  0.89440  1.0000
  C   C63       1.0  0.28393  0.76821  0.60737  1.0000
  C   C64       1.0  0.26274  0.73405  0.58872  1.0000
  C   C65       1.0  0.26155  0.70099  0.60807  1.0000
  C   C66       1.0  0.28183  0.70188  0.64586  1.0000
  C   C67       1.0  0.30404  0.73631  0.66357  1.0000
  C   C68       1.0  0.30492  0.76936  0.64448  1.0000
  H   H55       1.0  0.24666  0.73286  0.56001  1.0000
  H   H56       1.0  0.25882  0.53302  0.59767  1.0000
  H   H57       1.0  0.31956  0.73721  0.69291  1.0000
  H   H58       1.0  0.32139  0.79571  0.65908  1.0000
  H   H59       1.0  0.20922  0.78674  0.65290  1.0000
  S   S21       1.0  0.34347  0.55045  0.71886  1.0000
  H   H60       1.0  0.13780  0.64846  0.64254  1.0000
  C   C69       1.0  0.20192  0.73190  0.67597  1.0000
  H   H61       1.0  0.12045  0.69064  0.59844  1.0000
  H   H62       1.0  0.27921  0.97788  0.58301  1.0000
  C   C70       1.0  0.06621  0.73181  0.49950  1.0000
  H   H63       1.0  0.22552  0.74402  0.69666  1.0000
  S   S22       1.0  0.10610  0.74006  0.52825  1.0000
  H   H64       1.0  0.25519  0.92412  0.53516  1.0000
  C   C71       1.0  0.16312  0.74125  0.62369  1.0000
  Fe  Fe11      1.0  0.34183  0.64948  0.81624  1.0000
  H   H65       1.0  0.15574  0.75980  0.60433  1.0000
  H   H66       1.0  0.29530  0.56523  0.66230  1.0000
  Fe  Fe12      1.0  0.16877  0.78181  0.49921  1.0000
  H   H67       1.0  0.02698  0.68103  0.54817  1.0000
  H   H68       1.0  0.35092  0.96540  0.58640  1.0000
  C   C72       1.0  0.32477  0.90536  0.53822  1.0000
  C   C73       1.0  0.27358  0.52156  0.61602  1.0000
  S   S23       1.0  0.27454  0.65853  0.67386  1.0000
  C   C74       1.0  0.19276  0.75625  0.65140  1.0000
  H   H69       1.0  0.21900  0.68407  0.71350  1.0000
  C   C75       1.0  0.15327  0.67873  0.64532  1.0000
  H   H70       1.0  0.19368  0.64869  0.67661  1.0000
  C   C76       1.0  0.03004  0.69978  0.51715  1.0000
  S   S24       1.0  0.20290  0.75344  0.50134  1.0000
  H   H71       1.0  0.32308  0.90028  0.57743  1.0000
  H   H72       1.0  0.30740  0.57698  0.96562  1.0000
  H   H73       1.0  0.29547  0.89434  0.52928  1.0000
  H   H74       1.0  0.33590  0.88841  0.52301  1.0000
  N   N7        1.0  0.34919  0.94586  0.51897  1.0000
  H   H75       1.0  0.33654  0.61144  0.58936  1.0000
  H   H76       1.0  0.34387  0.55134  0.54200  1.0000
  H   H77       1.0  0.35341  0.61517  0.52776  1.0000
  H   H78       1.0  0.27224  0.58793  0.98396  1.0000
  C   C77       1.0  0.33703  0.66569  0.98605  1.0000
  H   H79       1.0  0.40625  0.16503  0.29673  1.0000
  Fe  Fe13      1.0  0.66169  0.32837  0.24597  1.0000
  S   S25       1.0  0.61182  0.33015  0.28181  1.0000
  H   H80       1.0  0.39030  0.20457  0.37349  1.0000
  H   H81       1.0  0.48947  0.23625  0.27778  1.0000
  S   S26       1.0  0.48066  0.18000  0.41026  1.0000
  C   C78       1.0  0.51903  0.22262  0.37827  1.0000
  C   C79       1.0  0.54365  0.22040  0.34392  1.0000
  C   C80       1.0  0.57306  0.25345  0.31535  1.0000
  C   C81       1.0  0.57776  0.28895  0.32062  1.0000
  C   C82       1.0  0.55366  0.29138  0.35572  1.0000
  C   C83       1.0  0.52442  0.25828  0.38470  1.0000
  H   H82       1.0  0.53971  0.19290  0.33888  1.0000
  H   H83       1.0  0.59146  0.25127  0.28841  1.0000
  H   H84       1.0  0.55720  0.31881  0.35993  1.0000
  H   H85       1.0  0.50547  0.26026  0.41094  1.0000
  C   C84       1.0  0.46324  0.29300  0.32671  1.0000
  H   H86       1.0  0.68196  0.40487  0.25816  1.0000
  S   S27       1.0  0.37630  0.15025  0.45818  1.0000
  C   C85       1.0  0.48478  0.28266  0.29873  1.0000
  C   C86       1.0  0.42912  0.26469  0.35375  1.0000
  H   H87       1.0  0.51173  0.30439  0.27809  1.0000
  Fe  Fe14      1.0  0.43869  0.18014  0.46533  1.0000
  C   C87       1.0  0.47203  0.24398  0.29870  1.0000
  C   C88       1.0  0.42541  0.17602  0.32436  1.0000
  H   H88       1.0  0.41202  0.27232  0.37565  1.0000
  H   H89       1.0  0.40994  0.15869  0.35929  1.0000
  S   S28       1.0  0.66546  0.27980  0.22161  1.0000
  N   N8        1.0  0.43879  0.21640  0.32587  1.0000
  H   H90       1.0  0.44980  0.17185  0.31687  1.0000
  C   C89       1.0  0.41707  0.22630  0.35260  1.0000
  H   H91       1.0  0.47300  0.32288  0.32761  1.0000
  H   H92       1.0  0.68288  0.35336  0.04871  1.0000
  H   H93       1.0  0.65942  0.39282  0.34408  1.0000
  H   H94       1.0  0.36098  0.50503  0.42220  1.0000
  H   H95       1.0  0.67296  0.18619  0.47523  1.0000
  C   C90       1.0  0.68670  0.33933  0.02023  1.0000
  C   C91       1.0  0.67979  0.42177  0.32719  1.0000
  H   H96       1.0  0.40869  0.05263  0.46635  1.0000
  H   H97       1.0  0.68411  0.44709  0.39114  1.0000
  C   C92       1.0  0.39279  0.02264  0.48113  1.0000
  S   S29       1.0  0.64004  0.32279  0.75851  1.0000
  C   C93       1.0  0.56406  0.32978  0.57732  1.0000
  Fe  Fe15      1.0  0.64027  0.27324  0.73209  1.0000
  S   S30       1.0  0.58895  0.22022  0.71361  1.0000
  C   C94       1.0  0.59582  0.33624  0.59881  1.0000
  C   C95       1.0  0.58918  0.27921  0.57229  1.0000
  Fe  Fe16      1.0  0.37732  0.19904  0.49053  1.0000
  Fe  Fe17      1.0  0.42750  0.19822  0.56385  1.0000
  N   N9        1.0  0.55793  0.27299  0.55151  1.0000
  S   S31       1.0  0.46078  0.23389  0.61926  1.0000
  S   S32       1.0  0.43008  0.14957  0.53799  1.0000
  H   H98       1.0  0.50673  0.22765  0.53234  1.0000
  H   H99       1.0  0.54643  0.14111  0.84847  1.0000
  H   H100      1.0  0.52024  0.29257  0.53783  1.0000
  C   C96       1.0  0.55336  0.22417  0.68755  1.0000
  C   C97       1.0  0.54833  0.25473  0.69326  1.0000
  C   C98       1.0  0.51913  0.25667  0.67319  1.0000
  C   C99       1.0  0.49524  0.22858  0.64645  1.0000
  C   C100      1.0  0.50025  0.19798  0.64075  1.0000
  C   C101      1.0  0.52900  0.19563  0.66164  1.0000
  H   H101      1.0  0.56671  0.27675  0.71339  1.0000
  H   H102      1.0  0.51531  0.28034  0.67788  1.0000
  H   H103      1.0  0.48176  0.17598  0.62064  1.0000
  H   H104      1.0  0.53248  0.17169  0.65749  1.0000
  Fe  Fe18      1.0  0.36741  0.12280  0.53281  1.0000
  H   H105      1.0  0.58396  0.16847  0.79880  1.0000
  C   C102      1.0  0.60857  0.31091  0.59619  1.0000
  H   H106      1.0  0.54276  0.21669  0.53870  1.0000
  H   H107      1.0  0.67228  0.36846  0.96711  1.0000
  C   C103      1.0  0.53804  0.23996  0.52604  1.0000
  H   H108      1.0  0.53636  0.15677  0.79360  1.0000
  C   C104      1.0  0.54554  0.29799  0.55334  1.0000
  H   H109      1.0  0.61025  0.36047  0.61815  1.0000
  N   N10       1.0  0.56690  0.20049  0.83684  1.0000
  C   C105      1.0  0.55051  0.22035  0.82142  1.0000
  C   C106      1.0  0.59246  0.21398  0.86882  1.0000
  C   C107      1.0  0.55966  0.25469  0.83810  1.0000
  C   C108      1.0  0.60206  0.24808  0.88641  1.0000
  C   C109      1.0  0.58565  0.26859  0.87078  1.0000
  C   C110      1.0  0.55783  0.16484  0.81876  1.0000
  H   H110      1.0  0.53091  0.21018  0.79521  1.0000
  H   H111      1.0  0.60593  0.19860  0.88046  1.0000
  H   H112      1.0  0.54728  0.27078  0.82499  1.0000
  H   H113      1.0  0.62264  0.25898  0.91138  1.0000
  H   H114      1.0  0.59374  0.29562  0.88334  1.0000
  H   H115      1.0  0.63276  0.31539  0.61364  1.0000
  S   S33       1.0  0.67990  0.27261  0.78242  1.0000
  H   H116      1.0  0.59872  0.25914  0.57158  1.0000
  C   C111      1.0  0.68077  0.34786  0.97385  1.0000
  H   H117      1.0  0.55325  0.34870  0.58014  1.0000
  C   C112      1.0  0.38218  0.01204  0.53006  1.0000
  S   S34       1.0  0.36369  0.16939  0.56540  1.0000
  Fe  Fe19      1.0  0.68365  0.32575  0.80461  1.0000
  C   C113      1.0  0.68593  0.33020  0.93612  1.0000
  S   S35       1.0  0.68665  0.30899  0.67196  1.0000
  H   H118      1.0  0.38940  0.03375  0.55333  1.0000
  S   S36       1.0  0.67883  0.34294  0.87831  1.0000
  S   S37       1.0  0.44084  0.23095  0.49095  1.0000
  H   H119      1.0  0.54784  0.24852  0.48727  1.0000
  C   C114      1.0  0.51518  0.77936  0.41975  1.0000
  Fe  Fe20      1.0  0.63800  0.81195  0.40751  1.0000
  S   S38       1.0  0.61305  0.81365  0.33963  1.0000
  H   H120      1.0  0.54886  0.84062  0.35354  1.0000
  Fe  Fe21      1.0  0.42067  0.67440  0.25187  1.0000
  S   S39       1.0  0.39072  0.63064  0.20344  1.0000
  S   S40       1.0  0.45781  0.66919  0.30317  1.0000
  Fe  Fe22      1.0  0.39616  0.67840  0.15236  1.0000
  H   H121      1.0  0.40228  0.56534  0.36638  1.0000
  H   H122      1.0  0.36586  0.81324  0.31429  1.0000
  S   S41       1.0  0.43137  0.72300  0.19846  1.0000
  H   H123      1.0  0.44799  0.73111  0.39254  1.0000
  S   S42       1.0  0.41593  0.67996  0.07434  1.0000
  H   H124      1.0  0.50584  0.74882  0.42879  1.0000
  C   C115      1.0  0.57108  0.77265  0.32842  1.0000
  C   C116      1.0  0.55357  0.77504  0.28897  1.0000
  C   C117      1.0  0.51881  0.74356  0.28079  1.0000
  C   C118      1.0  0.50178  0.70920  0.31149  1.0000
  C   C119      1.0  0.51990  0.70651  0.35015  1.0000
  C   C120      1.0  0.55435  0.73816  0.35876  1.0000
  H   H125      1.0  0.56650  0.80158  0.26516  1.0000
  H   H126      1.0  0.50523  0.74584  0.25070  1.0000
  H   H127      1.0  0.50696  0.67995  0.37394  1.0000
  H   H128      1.0  0.56763  0.73597  0.38922  1.0000
  N   N11       1.0  0.49991  0.78530  0.37720  1.0000
  H   H129      1.0  0.61104  0.71664  0.30611  1.0000
  C   C121      1.0  0.52049  0.81902  0.34724  1.0000
  S   S43       1.0  0.36654  0.66605  0.28868  1.0000
  C   C122      1.0  0.50570  0.82573  0.30744  1.0000
  H   H130      1.0  0.45741  0.80265  0.26822  1.0000
  S   S44       1.0  0.61516  0.82298  0.47395  1.0000
  Fe  Fe23      1.0  0.37497  0.71201  0.23300  1.0000
  H   H131      1.0  0.52226  0.85227  0.28342  1.0000
  C   C123      1.0  0.35905  0.95601  0.47090  1.0000
  H   H132      1.0  0.50555  0.78886  0.45029  1.0000
  C   C124      1.0  0.46432  0.75789  0.36897  1.0000
  H   H133      1.0  0.42035  0.74216  0.32316  1.0000
  C   C125      1.0  0.44859  0.76379  0.32971  1.0000
  C   C126      1.0  0.46947  0.79791  0.29878  1.0000
  S   S45       1.0  0.63975  0.76227  0.44241  1.0000
  C   C127      1.0  0.39028  0.67199  0.02479  1.0000
  H   H134      1.0  0.54691  0.79564  0.41412  1.0000
  H   H135      1.0  0.64495  0.78536  0.27544  1.0000
  H   H136      1.0  0.37711  0.60635  0.34244  1.0000
  S   S46       1.0  0.37516  0.76275  0.25871  1.0000
  C   C128      1.0  0.65902  0.77463  0.29684  1.0000
  H   H137      1.0  0.64305  0.69148  0.35514  1.0000
  C   C129      1.0  0.63980  0.73562  0.31377  1.0000
  H   H138      1.0  0.36765  0.58844  0.10074  1.0000
  Fe  Fe24      1.0  0.67674  0.86262  0.48352  1.0000
  C   C130      1.0  0.35617  0.67172  0.02646  1.0000
  C   C131      1.0  0.37383  0.55757  0.38125  1.0000
  C   C132      1.0  0.35962  0.58064  0.36770  1.0000
  C   C133      1.0  0.38118  0.99449  0.45127  1.0000
  C   C134      1.0  0.65770  0.72157  0.34125  1.0000
  H   H139      1.0  0.38791  0.00237  0.41306  1.0000
  H   H140      1.0  0.51678  0.74626  0.83087  1.0000
  S   S47       1.0  0.57238  0.72506  0.55846  1.0000
  Fe  Fe25      1.0  0.40130  0.69057  0.72870  1.0000
  H   H141      1.0  0.47804  0.71946  0.79786  1.0000
  S   S48       1.0  0.46003  0.74223  0.70446  1.0000
  S   S49       1.0  0.38945  0.64290  0.78469  1.0000
  H   H142      1.0  0.50574  0.77069  0.78540  1.0000
  C   C135      1.0  0.40475  0.66584  0.98235  1.0000
  C   C136      1.0  0.42148  0.58984  0.62504  1.0000
  C   C137      1.0  0.47259  0.75198  0.89495  1.0000
  C   C138      1.0  0.40809  0.74778  0.86557  1.0000
  C   C139      1.0  0.36213  0.62002  0.56370  1.0000
  C   C140      1.0  0.54102  0.73052  0.59790  1.0000
  C   C141      1.0  0.54783  0.76660  0.60480  1.0000
  C   C142      1.0  0.52274  0.76991  0.63747  1.0000
  C   C143      1.0  0.49050  0.73722  0.66290  1.0000
  C   C144      1.0  0.48354  0.70114  0.65578  1.0000
  C   C145      1.0  0.50881  0.69783  0.62347  1.0000
  H   H143      1.0  0.57268  0.79195  0.58545  1.0000
  H   H144      1.0  0.52835  0.79791  0.64297  1.0000
  H   H145      1.0  0.45923  0.67590  0.67606  1.0000
  H   H146      1.0  0.50372  0.66993  0.61856  1.0000
  N   N12       1.0  0.46631  0.74831  0.84864  1.0000
  H   H147      1.0  0.39681  0.65461  0.90976  1.0000
  H   H148      1.0  0.39326  0.75151  0.93815  1.0000
  H   H149      1.0  0.41608  0.63892  0.62039  1.0000
  C   C146      1.0  0.49318  0.74613  0.81432  1.0000
  H   H150      1.0  0.38244  0.65117  0.56275  1.0000
  H   H151      1.0  0.44202  0.60021  0.65011  1.0000
  C   C147      1.0  0.43478  0.74657  0.83371  1.0000
  H   H152      1.0  0.45120  0.75573  0.96468  1.0000
  H   H153      1.0  0.49737  0.75303  0.90710  1.0000
  C   C148      1.0  0.36018  0.97328  0.54850  1.0000
  C   C149      1.0  0.44677  0.75386  0.92766  1.0000
  N   N13       1.0  0.37938  0.59799  0.57825  1.0000
  C   C150      1.0  0.38141  0.54070  0.57952  1.0000
  C   C151      1.0  0.38544  0.65950  0.94203  1.0000
  C   C152      1.0  0.40644  0.61152  0.60837  1.0000
  C   C153      1.0  0.41424  0.75155  0.91280  1.0000
  C   C154      1.0  0.36660  0.56293  0.56405  1.0000
  H   H154      1.0  0.43002  0.74390  0.79696  1.0000
  H   H155      1.0  0.37034  0.51242  0.56937  1.0000
  H   H156      1.0  0.38236  0.74489  0.85394  1.0000
  S   S50       1.0  0.68042  0.81607  0.52591  1.0000
  S   S51       1.0  0.36388  0.65242  0.67944  1.0000
  S   S52       1.0  0.35626  0.69989  0.76270  1.0000
  Fe  Fe26      1.0  0.62075  0.77619  0.51009  1.0000
  C   C155      1.0  0.40875  0.55416  0.61058  1.0000
  H   H157      1.0  0.43106  0.66587  0.98073  1.0000
  H   H158      1.0  0.41934  0.53658  0.62441  1.0000
  C   C156      1.0  0.96033  0.30335  0.41792  1.0000
  S   S53       1.0  0.89662  0.19823  0.44330  1.0000
  H   H159      1.0  0.01216  0.28553  0.33789  1.0000
  C   C157      1.0  0.79717  0.00990  0.46034  1.0000
  Fe  Fe27      1.0  0.85707  0.22027  0.43677  1.0000
  S   S54       1.0  0.86561  0.26245  0.37395  1.0000
  S   S55       1.0  0.71857  0.25664  0.31079  1.0000
  C   C158      1.0  0.98856  0.32384  0.44597  1.0000
  Fe  Fe28      1.0  0.74682  0.38441  0.22284  1.0000
  H   H160      1.0  0.94678  0.27336  0.35708  1.0000
  S   S56       1.0  0.79106  0.44746  0.22028  1.0000
  C   C159      1.0  0.79625  0.36399  0.02942  1.0000
  Fe  Fe29      1.0  0.70621  0.32219  0.15910  1.0000
  H   H161      1.0  0.82321  0.31889  0.47992  1.0000
  H   H162      1.0  0.75040  0.38710  0.08943  1.0000
  S   S57       1.0  0.75819  0.34053  0.19667  1.0000
  C   C160      1.0  0.75175  0.27270  0.43306  1.0000
  H   H163      1.0  0.76056  0.29740  0.40708  1.0000
  N   N14       1.0  0.78651  0.39109  0.02988  1.0000
  C   C161      1.0  0.82502  0.25954  0.35309  1.0000
  C   C162      1.0  0.82898  0.29081  0.32384  1.0000
  C   C163      1.0  0.79672  0.29001  0.30912  1.0000
  C   C164      1.0  0.76040  0.25762  0.32301  1.0000
  C   C165      1.0  0.75668  0.22598  0.35101  1.0000
  C   C166      1.0  0.78876  0.22706  0.36645  1.0000
  H   H164      1.0  0.85700  0.31598  0.31318  1.0000
  H   H165      1.0  0.79989  0.31455  0.28759  1.0000
  Fe  Fe30      1.0  0.84439  0.14384  0.48102  1.0000
  H   H166      1.0  0.78538  0.20267  0.38851  1.0000
  C   C167      1.0  0.75871  0.03522  0.48689  1.0000
  H   H167      1.0  0.83703  0.28996  0.44985  1.0000
  C   C168      1.0  0.80529  0.50149  0.35806  1.0000
  C   C169      1.0  0.78112  0.40375  0.07485  1.0000
  H   H168      1.0  0.71104  0.27427  0.99861  1.0000
  C   C170      1.0  0.78395  0.46172  0.35937  1.0000
  C   C171      1.0  0.78024  0.44506  0.31754  1.0000
  C   C172      1.0  0.79777  0.46793  0.27373  1.0000
  Fe  Fe31      1.0  0.71693  0.30108  0.26025  1.0000
  H   H169      1.0  0.77002  0.44360  0.39298  1.0000
  H   H170      1.0  0.76390  0.41446  0.31934  1.0000
  C   C173      1.0  0.81968  0.50783  0.27234  1.0000
  N   N15       1.0  0.77780  0.26995  0.45745  1.0000
  C   C174      1.0  0.69384  0.45250  0.35342  1.0000
  H   H171      1.0  0.98171  0.33321  0.47770  1.0000
  H   H172      1.0  0.79111  0.43462  0.06982  1.0000
  H   H173      1.0  0.79729  0.39939  0.10165  1.0000
  C   C175      1.0  0.96890  0.28968  0.37868  1.0000
  C   C176      1.0  0.73207  0.49561  0.28421  1.0000
  C   C177      1.0  0.69788  0.31290  0.02944  1.0000
  C   C178      1.0  0.71367  0.24265  0.43907  1.0000
  N   N16       1.0  0.71985  0.48881  0.33186  1.0000
  S   S58       1.0  0.70885  0.30311  0.08613  1.0000
  H   H174      1.0  0.72869  0.20075  0.36169  1.0000
  H   H175      1.0  0.79996  0.35171  0.06220  1.0000
  C   C179      1.0  0.69236  0.42848  0.27872  1.0000
  H   H176      1.0  0.82521  0.31968  0.41598  1.0000
  C   C180      1.0  0.81774  0.30134  0.45058  1.0000
  C   C181      1.0  0.71866  0.46555  0.25699  1.0000
  S   S59       1.0  0.69822  0.36933  0.18040  1.0000
  S   S60       1.0  0.70980  0.34636  0.28922  1.0000
  H   H177      1.0  0.93167  0.29760  0.42688  1.0000
  S   S61       1.0  0.80445  0.16462  0.46836  1.0000
  C   C182      1.0  0.79447  0.04137  0.47040  1.0000
  H   H178      1.0  0.72951  0.47073  0.21959  1.0000
  H   H179      1.0  0.69362  0.24418  0.41769  1.0000
  H   H180      1.0  0.82464  0.01436  0.44724  1.0000
  C   C183      1.0  0.00580  0.29663  0.36813  1.0000
  S   S62       1.0  0.83708  0.08681  0.46659  1.0000
  C   C184      1.0  0.70245  0.29480  0.99185  1.0000
  H   H181      1.0  0.98760  0.22342  0.47625  1.0000
  C   C185      1.0  0.70222  0.21000  0.47090  1.0000
  C   C186      1.0  0.77893  0.40440  0.98919  1.0000
  H   H182      1.0  0.76939  0.42445  0.99001  1.0000
  H   H183      1.0  0.80630  0.32803  0.98724  1.0000
  C   C187      1.0  0.79956  0.35023  0.98714  1.0000
  Fe  Fe32      1.0  0.81807  0.18745  0.53811  1.0000
  S   S63       1.0  0.76847  0.17911  0.58860  1.0000
  C   C188      1.0  0.80016  0.05399  0.58818  1.0000
  S   S64       1.0  0.85450  0.16286  0.55335  1.0000
  H   H184      1.0  0.77444  0.40072  0.91447  1.0000
  C   C189      1.0  0.73324  0.02777  0.61344  1.0000
  Fe  Fe33      1.0  0.72651  0.31271  0.72309  1.0000
  S   S65       1.0  0.77999  0.31448  0.69387  1.0000
  S   S66       1.0  0.73335  0.36597  0.74865  1.0000
  N   N17       1.0  0.79318  0.01821  0.58376  1.0000
  H   H185      1.0  0.83434  0.42073  0.64574  1.0000
  C   C190      1.0  0.77207  0.21753  0.61639  1.0000
  C   C191      1.0  0.73894  0.21405  0.63951  1.0000
  C   C192      1.0  0.74088  0.24382  0.66264  1.0000
  C   C193      1.0  0.77613  0.27716  0.66334  1.0000
  C   C194      1.0  0.80920  0.28080  0.63978  1.0000
  C   C195      1.0  0.80719  0.25123  0.61614  1.0000
  H   H186      1.0  0.71167  0.18807  0.63994  1.0000
  H   H187      1.0  0.71523  0.24064  0.68075  1.0000
  H   H188      1.0  0.83660  0.30638  0.64041  1.0000
  H   H189      1.0  0.83297  0.25412  0.59896  1.0000
  H   H190      1.0  0.86320  0.48378  0.59586  1.0000
  C   C196      1.0  0.83513  0.46082  0.59090  1.0000
  H   H191      1.0  0.77000  0.36840  0.63529  1.0000
  S   S67       1.0  0.95974  0.25702  0.54302  1.0000
  H   H192      1.0  0.79358  0.35269  0.91264  1.0000
  C   C197      1.0  0.75867  0.46131  0.66438  1.0000
  C   C198      1.0  0.72791  0.44897  0.63825  1.0000
  C   C199      1.0  0.72845  0.47465  0.60252  1.0000
  C   C200      1.0  0.77031  0.05936  0.60284  1.0000
  H   H193      1.0  0.75843  0.44178  0.69223  1.0000
  C   C201      1.0  0.78011  0.43765  0.55152  1.0000
  H   H194      1.0  0.84625  0.03767  0.54152  1.0000
  H   H195      1.0  0.72028  0.18274  0.52156  1.0000
  Fe  Fe34      1.0  0.68959  0.35886  0.70164  1.0000
  N   N18       1.0  0.81548  0.46661  0.55788  1.0000
  C   C202      1.0  0.76314  0.40194  0.57933  1.0000
  H   H196      1.0  0.81369  0.50852  0.67456  1.0000
  C   C203      1.0  0.81906  0.42539  0.61917  1.0000
  C   C204      1.0  0.78180  0.39115  0.94633  1.0000
  H   H197      1.0  0.73453  0.37943  0.57546  1.0000
  C   C205      1.0  0.00584  0.26603  0.52336  1.0000
  H   H198      1.0  0.82877  0.07872  0.57878  1.0000
  H   H199      1.0  0.76452  0.44239  0.52551  1.0000
  C   C206      1.0  0.78283  0.39586  0.61329  1.0000
  Fe  Fe35      1.0  0.90382  0.21857  0.51456  1.0000
  C   C207      1.0  0.79235  0.36400  0.94536  1.0000
  H   H200      1.0  0.77581  0.08793  0.60494  1.0000
  S   S68       1.0  0.86763  0.24436  0.50554  1.0000
  C   C208      1.0  0.69662  0.30341  0.94545  1.0000
  H   H201      1.0  0.70463  0.46543  0.58245  1.0000
  C   C209      1.0  0.72876  0.20792  0.49657  1.0000
  H   H202      1.0  0.70070  0.28953  0.91693  1.0000
  H   H203      1.0  0.70973  0.03165  0.62376  1.0000
  C   C210      1.0  0.01176  0.24596  0.48990  1.0000
  C   C211      1.0  0.83310  0.50347  0.52759  1.0000
  C   C212      1.0  0.78994  0.49913  0.65434  1.0000
  H   H204      1.0  0.84805  0.50293  0.49389  1.0000
  H   H205      1.0  0.75609  0.05913  0.49447  1.0000
  H   H206      1.0  0.78716  0.23645  0.50928  1.0000
  C   C213      1.0  0.82493  0.01331  0.56844  1.0000
  H   H207      1.0  0.83903  0.01149  0.59935  1.0000
  S   S69       1.0  0.68892  0.40153  0.64768  1.0000
  C   C214      1.0  0.76664  0.23839  0.48945  1.0000
  C   C215      1.0  0.72481  0.72289  0.46236  1.0000
  S   S70       1.0  0.85530  0.64133  0.39695  1.0000
  H   H208      1.0  0.71527  0.53359  0.35702  1.0000
  Fe  Fe36      1.0  0.89960  0.65887  0.44815  1.0000
  Fe  Fe37      1.0  0.83459  0.58095  0.42935  1.0000
  H   H209      1.0  0.73723  0.85736  0.31162  1.0000
  S   S71       1.0  0.69928  0.85459  0.41409  1.0000
  C   C216      1.0  0.69450  0.74654  0.35112  1.0000
  C   C217      1.0  0.76533  0.69569  0.45289  1.0000
  H   H210      1.0  0.73276  0.51172  0.39736  1.0000
  H   H211      1.0  0.82466  0.73652  0.42877  1.0000
  C   C218      1.0  0.00116  0.71566  0.45480  1.0000
  H   H212      1.0  0.76777  0.94845  0.46268  1.0000
  S   S72       1.0  0.96200  0.70512  0.42318  1.0000
  C   C219      1.0  0.72934  0.69115  0.46479  1.0000
  Fe  Fe38      1.0  0.81852  0.64389  0.45763  1.0000
  C   C220      1.0  0.75622  0.75966  0.44720  1.0000
  H   H213      1.0  0.72484  0.84574  0.25314  1.0000
  H   H214      1.0  0.83998  0.55536  0.31300  1.0000
  C   C221      1.0  0.71254  0.78548  0.33444  1.0000
  H   H215      1.0  0.83352  0.52578  0.23859  1.0000
  H   H216      1.0  0.69695  0.71888  0.47167  1.0000
  H   H217      1.0  0.75308  0.52426  0.26719  1.0000
  N   N19       1.0  0.69445  0.79914  0.30840  1.0000
  S   S73       1.0  0.76899  0.65439  0.45758  1.0000
  C   C222      1.0  0.79222  0.76422  0.43539  1.0000
  H   H218      1.0  0.74089  0.80473  0.34313  1.0000
  H   H219      1.0  0.70472  0.66283  0.47602  1.0000
  S   S74       1.0  0.75182  0.80049  0.44045  1.0000
  S   S75       1.0  0.80640  0.52007  0.41205  1.0000
  C   C223      1.0  0.79683  0.73249  0.43831  1.0000
  H   H220      1.0  0.76347  0.54334  0.34626  1.0000
  C   C224      1.0  0.71344  0.84004  0.29130  1.0000
  Fe  Fe39      1.0  0.69909  0.80522  0.45546  1.0000
  H   H221      1.0  0.69300  0.84990  0.29609  1.0000
  H   H222      1.0  0.81672  0.79251  0.42351  1.0000
  C   C225      1.0  0.73329  0.52091  0.35941  1.0000
  C   C226      1.0  0.82335  0.52464  0.31440  1.0000
  S   S76       1.0  0.88125  0.59856  0.47540  1.0000
  H   H223      1.0  0.70882  0.73602  0.37228  1.0000
  C   C227      1.0  0.76493  0.97248  0.46889  1.0000
  S   S77       1.0  0.79441  0.58224  0.48514  1.0000
  H   H224      1.0  0.02061  0.68880  0.36767  1.0000
  H   H225      1.0  0.75915  0.53168  0.56552  1.0000
  C   C228      1.0  0.75765  0.64939  0.57490  1.0000
  S   S78       1.0  0.83095  0.57145  0.60428  1.0000
  N   N20       1.0  0.79248  0.67968  0.58061  1.0000
  H   H226      1.0  0.78071  0.72056  0.54800  1.0000
  H   H227      1.0  0.82016  0.73977  0.58146  1.0000
  H   H228      1.0  0.81493  0.98715  0.55107  1.0000
  Fe  Fe40      1.0  0.84129  0.60167  0.52980  1.0000
  H   H229      1.0  0.76257  0.57771  0.63497  1.0000
  H   H230      1.0  0.75121  0.95869  0.59031  1.0000
  C   C229      1.0  0.80616  0.63739  0.62574  1.0000
  S   S79       1.0  0.86337  0.66392  0.50713  1.0000
  H   H231      1.0  0.82471  0.72494  0.52450  1.0000
  C   C230      1.0  0.72649  0.99132  0.60961  1.0000
  C   C231      1.0  0.75700  0.98701  0.59482  1.0000
  C   C232      1.0  0.80512  0.71813  0.55761  1.0000
  H   H232      1.0  0.97021  0.66663  0.50849  1.0000
  H   H233      1.0  0.84490  0.69786  0.60853  1.0000
  C   C233      1.0  0.81677  0.67405  0.60535  1.0000
  H   H234      1.0  0.73883  0.65362  0.55405  1.0000
  C   C234      1.0  0.79077  0.52458  0.61784  1.0000
  H   H235      1.0  0.82574  0.63280  0.64452  1.0000
  C   C235      1.0  0.74628  0.61229  0.59443  1.0000
  C   C236      1.0  0.77069  0.60637  0.62016  1.0000
  H   H236      1.0  0.85364  0.52710  0.54587  1.0000
  C   C237      1.0  0.72951  0.96613  0.48752  1.0000
  H   H237      1.0  0.69766  0.96660  0.61622  1.0000
  C   C238      1.0  0.99773  0.69162  0.49484  1.0000
  H   H238      1.0  0.69917  0.99323  0.50963  1.0000
  H   H239      1.0  0.71906  0.58827  0.58879  1.0000
  C   C239      1.0  0.72646  0.99780  0.49541  1.0000
  S   S80       1.0  0.68985  0.91942  0.50771  1.0000
  C   C240      1.0  0.75966  0.51224  0.59245  1.0000
  H   H240      1.0  0.81131  0.51034  0.51864  1.0000
