data_image0
_chemical_formula_structural       HNH2CHC3H2C3HSCSC2FeH2C3SC2HCHCH2CHC2HCH5SC2NHC3HCHCHC3HCSHFeHCHCS3Fe3H2CHS2H2C4H2C3SCH2NCHSHC5H3SFeHSHFeHCFeHS2HFeSHC2SH3CH2C2H4S2H3C2HCHC2HCHFeC2SC2HCSCSCHC3H3NHS2H3NCH3NHC5HSH2CFeCSH2FeSFeH2CSCHCHSC3S2HFeC5HCH2CH2NSC2HSHFeCNSCH4C3NCH4C2H2CFeCSCHCFeH3S2CHC2HS2CH2C2FeH3NHC3HC2H3FeHC2FeCH3C2HSC3NHCH3CHCS2C2HFeCH4CHC2SH2FeSHCFeHC2HC3FeC2HCSHSHSCN
_chemical_formula_sum              "H144 N12 C144 S48 Fe24"
_cell_length_a       19.7069
_cell_length_b       17.3663
_cell_length_c       17.8207
_cell_angle_alpha    85.3645
_cell_angle_beta     78.2462
_cell_angle_gamma    116.777

_space_group_name_H-M_alt    "P 1"
_space_group_IT_number       1

loop_
  _space_group_symop_operation_xyz
  'x, y, z'

loop_
  _atom_site_type_symbol
  _atom_site_label
  _atom_site_symmetry_multiplicity
  _atom_site_fract_x
  _atom_site_fract_y
  _atom_site_fract_z
  _atom_site_occupancy
  H   H1        1.0  0.12427  0.18521  0.26222  1.0000
  N   N1        1.0  0.30488  0.20327  0.24983  1.0000
  H   H2        1.0  0.18468  0.99238  0.34624  1.0000
  H   H3        1.0  0.32615  0.10147  0.29581  1.0000
  C   C1        1.0  0.14553  0.08132  0.30574  1.0000
  H   H4        1.0  0.08338  0.03388  0.32831  1.0000
  C   C2        1.0  0.16867  0.16629  0.26825  1.0000
  C   C3        1.0  0.28241  0.12023  0.28746  1.0000
  C   C4        1.0  0.20258  0.05815  0.31603  1.0000
  H   H5        1.0  0.26648  0.29313  0.21215  1.0000
  H   H6        1.0  0.93062  0.94142  0.37003  1.0000
  C   C5        1.0  0.24913  0.22701  0.24073  1.0000
  C   C6        1.0  0.32631  0.92399  0.26570  1.0000
  C   C7        1.0  0.26968  0.91910  0.22756  1.0000
  H   H7        1.0  0.17670  0.17400  0.41979  1.0000
  S   S1        1.0  0.26199  0.34870  0.61460  1.0000
  C   C8        1.0  0.29875  0.10227  0.48748  1.0000
  S   S2        1.0  0.87684  0.95645  0.66786  1.0000
  C   C9        1.0  0.29069  0.93791  0.51671  1.0000
  C   C10       1.0  0.15735  0.19706  0.46969  1.0000
  Fe  Fe1       1.0  0.89160  0.02614  0.54957  1.0000
  H   H8        1.0  0.99174  0.17186  0.59671  1.0000
  H   H9        1.0  0.00181  0.38439  0.66835  1.0000
  C   C11       1.0  0.11014  0.25397  0.60297  1.0000
  C   C12       1.0  0.07722  0.16676  0.50273  1.0000
  C   C13       1.0  0.19021  0.28226  0.57045  1.0000
  S   S3        1.0  0.00818  0.09185  0.46064  1.0000
  C   C14       1.0  0.05342  0.19518  0.56983  1.0000
  C   C15       1.0  0.23460  0.95458  0.56414  1.0000
  H   H10       1.0  0.30140  0.16525  0.47553  1.0000
  C   C16       1.0  0.21312  0.25407  0.50366  1.0000
  H   H11       1.0  0.19447  0.04976  0.58418  1.0000
  C   C17       1.0  0.23813  0.03658  0.54869  1.0000
  H   H12       1.0  0.27382  0.27404  0.47927  1.0000
  H   H13       1.0  0.09212  0.27535  0.65500  1.0000
  C   C18       1.0  0.08994  0.97671  0.78282  1.0000
  H   H14       1.0  0.86765  0.30720  0.90049  1.0000
  C   C19       1.0  0.99091  0.33698  0.71852  1.0000
  C   C20       1.0  0.04060  0.36030  0.76818  1.0000
  H   H15       1.0  0.31034  0.01622  0.70698  1.0000
  C   C21       1.0  0.02533  0.29879  0.83362  1.0000
  H   H16       1.0  0.12376  0.12743  0.70254  1.0000
  H   H17       1.0  0.88978  0.23342  0.69413  1.0000
  H   H18       1.0  0.14740  0.00892  0.74040  1.0000
  H   H19       1.0  0.94321  0.01605  0.86821  1.0000
  H   H20       1.0  0.26668  0.31162  0.84572  1.0000
  S   S4        1.0  0.23594  0.11786  0.85122  1.0000
  C   C22       1.0  0.96069  0.21420  0.84938  1.0000
  C   C23       1.0  0.97616  0.98064  0.85406  1.0000
  N   N2        1.0  0.04736  0.02041  0.79868  1.0000
  H   H21       1.0  0.94883  0.16703  0.90033  1.0000
  C   C24       1.0  0.92770  0.25124  0.73285  1.0000
  C   C25       1.0  0.91274  0.18985  0.79824  1.0000
  C   C26       1.0  0.08002  0.11197  0.75951  1.0000
  H   H22       1.0  0.03268  0.12515  0.74743  1.0000
  C   C27       1.0  0.31831  0.11083  0.86511  1.0000
  H   H23       1.0  0.06362  0.31655  0.87206  1.0000
  C   C28       1.0  0.32811  0.33497  0.84491  1.0000
  H   H24       1.0  0.11039  0.15716  0.79664  1.0000
  C   C29       1.0  0.87197  0.40698  0.81742  1.0000
  C   C30       1.0  0.34893  0.32852  0.91448  1.0000
  C   C31       1.0  0.30945  0.04792  0.92572  1.0000
  H   H25       1.0  0.96849  0.34656  0.02701  1.0000
  C   C32       1.0  0.29181  0.98056  0.15985  1.0000
  S   S5        1.0  0.05062  0.95073  0.03058  1.0000
  H   H26       1.0  0.02517  0.37818  0.14059  1.0000
  Fe  Fe2       1.0  0.15004  0.08275  0.96758  1.0000
  H   H27       1.0  0.90187  0.13719  0.05099  1.0000
  C   C33       1.0  0.19883  0.38979  0.96981  1.0000
  H   H28       1.0  0.25173  0.00438  0.96513  1.0000
  C   C34       1.0  0.02109  0.40802  0.02231  1.0000
  S   S6        1.0  0.19306  0.11558  0.07369  1.0000
  S   S7        1.0  0.16219  0.30960  0.12285  1.0000
  S   S8        1.0  0.07600  0.15019  0.98246  1.0000
  Fe  Fe3       1.0  0.98015  0.02145  0.05598  1.0000
  Fe  Fe4       1.0  0.11384  0.17655  0.09189  1.0000
  Fe  Fe5       1.0  0.08607  0.98899  0.13896  1.0000
  H   H29       1.0  0.14244  0.33831  0.96765  1.0000
  H   H30       1.0  0.24818  0.97518  0.12891  1.0000
  C   C35       1.0  0.22302  0.39007  0.03857  1.0000
  H   H31       1.0  0.30387  0.30127  0.96978  1.0000
  S   S9        1.0  0.01103  0.05371  0.16730  1.0000
  S   S10       1.0  0.85312  0.95038  0.05892  1.0000
  H   H32       1.0  0.91866  0.59201  0.38187  1.0000
  H   H33       1.0  0.30820  0.87570  0.31814  1.0000
  C   C36       1.0  0.99184  0.72463  0.31613  1.0000
  C   C37       1.0  0.14919  0.51551  0.33256  1.0000
  C   C38       1.0  0.17292  0.59773  0.28809  1.0000
  C   C39       1.0  0.92873  0.63873  0.33154  1.0000
  H   H34       1.0  0.08827  0.47505  0.36662  1.0000
  H   H35       1.0  0.32611  0.46633  0.35118  1.0000
  C   C40       1.0  0.00414  0.78656  0.25245  1.0000
  C   C41       1.0  0.20501  0.48676  0.33413  1.0000
  C   C42       1.0  0.95338  0.76174  0.20390  1.0000
  S   S11       1.0  0.08112  0.89523  0.23676  1.0000
  C   C43       1.0  0.87839  0.61361  0.28260  1.0000
  H   H36       1.0  0.13093  0.62204  0.28712  1.0000
  H   H37       1.0  0.27158  0.71501  0.21357  1.0000
  N   N3        1.0  0.28233  0.53884  0.29281  1.0000
  C   C44       1.0  0.89122  0.67526  0.21841  1.0000
  H   H38       1.0  0.03019  0.74334  0.35454  1.0000
  S   S12       1.0  0.31556  0.73474  0.39075  1.0000
  H   H39       1.0  0.20916  0.86643  0.24923  1.0000
  C   C45       1.0  0.87277  0.80450  0.42500  1.0000
  C   C46       1.0  0.25167  0.64970  0.24584  1.0000
  C   C47       1.0  0.33984  0.50724  0.29333  1.0000
  C   C48       1.0  0.30575  0.61892  0.24845  1.0000
  C   C49       1.0  0.88804  0.87498  0.36856  1.0000
  H   H40       1.0  0.86071  0.91361  0.26582  1.0000
  H   H41       1.0  0.18629  0.42311  0.36943  1.0000
  H   H42       1.0  0.33999  0.46849  0.24684  1.0000
  S   S13       1.0  0.11026  0.53340  0.53842  1.0000
  Fe  Fe6       1.0  0.02937  0.59311  0.55695  1.0000
  H   H43       1.0  0.31577  0.58521  0.47655  1.0000
  S   S14       1.0  0.12539  0.72845  0.49867  1.0000
  H   H44       1.0  0.28865  0.87483  0.52819  1.0000
  Fe  Fe7       1.0  0.13976  0.74474  0.61816  1.0000
  H   H45       1.0  0.87800  0.77489  0.63798  1.0000
  C   C50       1.0  0.89264  0.66843  0.59608  1.0000
  Fe  Fe8       1.0  0.20826  0.67223  0.49313  1.0000
  H   H46       1.0  0.90403  0.81570  0.46994  1.0000
  S   S15       1.0  0.16413  0.87574  0.64606  1.0000
  S   S16       1.0  0.90710  0.52964  0.54364  1.0000
  H   H47       1.0  0.95644  0.70426  0.58108  1.0000
  Fe  Fe9       1.0  0.12296  0.56101  0.65683  1.0000
  S   S17       1.0  0.22690  0.69519  0.61051  1.0000
  H   H48       1.0  0.32126  0.53486  0.62189  1.0000
  C   C51       1.0  0.85427  0.58254  0.58279  1.0000
  C   C52       1.0  0.34764  0.57500  0.66399  1.0000
  S   S18       1.0  0.03739  0.61349  0.67767  1.0000
  H   H49       1.0  0.35069  0.53110  0.71063  1.0000
  H   H50       1.0  0.09262  0.72782  0.88859  1.0000
  H   H51       1.0  0.12285  0.60953  0.83881  1.0000
  C   C53       1.0  0.16605  0.60882  0.87008  1.0000
  H   H52       1.0  0.03347  0.45592  0.90280  1.0000
  H   H53       1.0  0.20272  0.67682  0.87749  1.0000
  C   C54       1.0  0.94530  0.89418  0.89404  1.0000
  C   C55       1.0  0.98795  0.84878  0.87773  1.0000
  H   H54       1.0  0.85964  0.49204  0.73221  1.0000
  H   H55       1.0  0.22414  0.46219  0.85431  1.0000
  H   H56       1.0  0.30701  0.59852  0.69272  1.0000
  H   H57       1.0  0.20547  0.58888  0.83332  1.0000
  S   S19       1.0  0.35101  0.83192  0.91807  1.0000
  S   S20       1.0  0.12115  0.46613  0.75063  1.0000
  H   H58       1.0  0.93184  0.45461  0.81566  1.0000
  H   H59       1.0  0.09524  0.85649  0.80948  1.0000
  H   H60       1.0  0.29335  0.86391  0.68365  1.0000
  C   C56       1.0  0.06089  0.89042  0.82203  1.0000
  C   C57       1.0  0.34956  0.88530  0.69709  1.0000
  H   H61       1.0  0.96552  0.78218  0.90920  1.0000
  C   C58       1.0  0.24510  0.46021  0.90563  1.0000
  H   H62       1.0  0.33621  0.75401  0.71676  1.0000
  C   C59       1.0  0.31539  0.53035  0.91071  1.0000
  C   C60       1.0  0.00725  0.63580  0.99235  1.0000
  H   H63       1.0  0.20886  0.62653  0.00242  1.0000
  C   C61       1.0  0.05263  0.42600  0.08610  1.0000
  H   H64       1.0  0.19325  0.80670  0.95838  1.0000
  Fe  Fe10      1.0  0.31363  0.79374  0.04799  1.0000
  C   C62       1.0  0.05842  0.46977  0.95200  1.0000
  C   C63       1.0  0.04669  0.65673  0.11273  1.0000
  S   S21       1.0  0.19521  0.76582  0.11971  1.0000
  C   C64       1.0  0.07959  0.70815  0.95117  1.0000
  C   C65       1.0  0.34248  0.52546  0.97631  1.0000
  H   H65       1.0  0.93313  0.56108  0.10674  1.0000
  C   C66       1.0  0.98982  0.61320  0.07357  1.0000
  S   S22       1.0  0.34913  0.68885  0.04896  1.0000
  C   C67       1.0  0.29595  0.45685  0.04093  1.0000
  S   S23       1.0  0.94170  0.56872  0.94236  1.0000
  C   C68       1.0  0.13688  0.75206  0.99045  1.0000
  H   H66       1.0  0.14581  0.52010  0.12798  1.0000
  C   C69       1.0  0.15636  0.56517  0.00771  1.0000
  C   C70       1.0  0.12049  0.50532  0.07902  1.0000
  C   C71       1.0  0.12116  0.72411  0.07101  1.0000
  H   H67       1.0  0.31610  0.45667  0.09303  1.0000
  H   H68       1.0  0.96148  0.80898  0.15540  1.0000
  H   H69       1.0  0.03354  0.63624  0.17528  1.0000
  N   N4        1.0  0.12522  0.54712  0.94544  1.0000
  H   H70       1.0  0.88989  0.86373  0.93900  1.0000
  S   S24       1.0  0.42037  0.39315  0.41869  1.0000
  S   S25       1.0  0.43979  0.17667  0.37627  1.0000
  H   H71       1.0  0.50810  0.97966  0.23032  1.0000
  H   H72       1.0  0.40683  0.30312  0.27190  1.0000
  H   H73       1.0  0.68240  0.32295  0.37216  1.0000
  N   N5        1.0  0.75921  0.29511  0.42418  1.0000
  C   C72       1.0  0.72290  0.15560  0.34561  1.0000
  H   H74       1.0  0.43855  0.93351  0.32429  1.0000
  H   H75       1.0  0.80165  0.12918  0.39789  1.0000
  H   H76       1.0  0.49387  0.05182  0.29180  1.0000
  N   N6        1.0  0.40341  0.98751  0.23637  1.0000
  H   H77       1.0  0.64671  0.19719  0.30481  1.0000
  C   C73       1.0  0.46373  0.98817  0.27294  1.0000
  C   C74       1.0  0.68883  0.21002  0.33915  1.0000
  C   C75       1.0  0.77601  0.17214  0.39115  1.0000
  C   C76       1.0  0.38887  0.26869  0.22377  1.0000
  C   C77       1.0  0.70859  0.28057  0.37816  1.0000
  H   H78       1.0  0.70748  0.10031  0.31592  1.0000
  S   S26       1.0  0.64082  0.34272  0.20348  1.0000
  H   H79       1.0  0.42647  0.23724  0.20720  1.0000
  H   H80       1.0  0.39939  0.99418  0.42541  1.0000
  C   C78       1.0  0.57689  0.12466  0.53367  1.0000
  Fe  Fe11      1.0  0.53025  0.36208  0.56551  1.0000
  C   C79       1.0  0.65111  0.21009  0.64298  1.0000
  S   S27       1.0  0.41194  0.25801  0.56361  1.0000
  H   H81       1.0  0.73329  0.39030  0.47369  1.0000
  H   H82       1.0  0.37644  0.04423  0.61004  1.0000
  Fe  Fe12      1.0  0.72168  0.99012  0.58731  1.0000
  S   S28       1.0  0.63119  0.00529  0.53894  1.0000
  Fe  Fe13      1.0  0.37884  0.36413  0.54974  1.0000
  H   H83       1.0  0.53491  0.21876  0.52926  1.0000
  H   H84       1.0  0.69313  0.11557  0.64739  1.0000
  C   C80       1.0  0.62240  0.09584  0.56591  1.0000
  S   S29       1.0  0.59244  0.32619  0.64216  1.0000
  C   C81       1.0  0.65965  0.13875  0.62052  1.0000
  H   H85       1.0  0.54788  0.09179  0.49135  1.0000
  C   C82       1.0  0.60535  0.23890  0.61117  1.0000
  H   H86       1.0  0.78581  0.35205  0.52329  1.0000
  S   S30       1.0  0.78188  0.91783  0.53232  1.0000
  C   C83       1.0  0.35298  0.00517  0.45728  1.0000
  C   C84       1.0  0.56916  0.19663  0.55561  1.0000
  C   C85       1.0  0.77951  0.36935  0.46465  1.0000
  S   S31       1.0  0.83343  0.10425  0.59407  1.0000
  S   S32       1.0  0.58223  0.39540  0.43599  1.0000
  H   H87       1.0  0.83387  0.25442  0.46665  1.0000
  Fe  Fe14      1.0  0.46197  0.29359  0.43340  1.0000
  C   C86       1.0  0.35775  0.08807  0.44355  1.0000
  C   C87       1.0  0.37194  0.03680  0.67346  1.0000
  C   C88       1.0  0.79361  0.24267  0.43028  1.0000
  C   C89       1.0  0.71914  0.28411  0.82350  1.0000
  C   C90       1.0  0.44878  0.09141  0.87985  1.0000
  H   H88       1.0  0.69466  0.12365  0.88390  1.0000
  C   C91       1.0  0.42805  0.35654  0.91208  1.0000
  H   H89       1.0  0.39977  0.21449  0.76666  1.0000
  H   H90       1.0  0.51583  0.19999  0.78259  1.0000
  C   C92       1.0  0.39296  0.16672  0.81434  1.0000
  H   H91       1.0  0.54970  0.96201  0.74471  1.0000
  H   H92       1.0  0.50284  0.06754  0.71615  1.0000
  N   N7        1.0  0.76012  0.26287  0.86716  1.0000
  S   S33       1.0  0.52645  0.06784  0.87874  1.0000
  C   C93       1.0  0.49327  0.93933  0.73136  1.0000
  C   C94       1.0  0.45854  0.15834  0.82296  1.0000
  H   H93       1.0  0.57216  0.37871  0.88952  1.0000
  S   S34       1.0  0.69372  0.91936  0.70916  1.0000
  H   H94       1.0  0.65914  0.23660  0.82589  1.0000
  Fe  Fe15      1.0  0.81107  0.02769  0.71183  1.0000
  C   C95       1.0  0.46649  0.99916  0.71492  1.0000
  N   N8        1.0  0.39620  0.97221  0.69675  1.0000
  S   S35       1.0  0.83311  0.08322  0.81869  1.0000
  C   C96       1.0  0.75435  0.36670  0.77418  1.0000
  H   H95       1.0  0.72258  0.38251  0.73775  1.0000
  H   H96       1.0  0.36970  0.37237  0.71983  1.0000
  H   H97       1.0  0.41067  0.10298  0.68321  1.0000
  H   H98       1.0  0.60013  0.41084  0.78527  1.0000
  C   C97       1.0  0.72183  0.17542  0.91749  1.0000
  C   C98       1.0  0.46495  0.39637  0.77364  1.0000
  C   C99       1.0  0.83528  0.32347  0.86541  1.0000
  N   N9        1.0  0.48466  0.38856  0.84209  1.0000
  C   C100      1.0  0.38630  0.36937  0.77399  1.0000
  H   H99       1.0  0.67958  0.24234  0.68533  1.0000
  H   H100      1.0  0.76453  0.16139  0.94006  1.0000
  H   H101      1.0  0.36668  0.98653  0.97743  1.0000
  H   H102      1.0  0.75690  0.94616  0.95108  1.0000
  C   C101      1.0  0.37006  0.04717  0.13184  1.0000
  C   C102      1.0  0.80160  0.00714  0.08973  1.0000
  H   H103      1.0  0.38809  0.09492  0.07885  1.0000
  H   H104      1.0  0.82212  0.21332  0.08760  1.0000
  C   C103      1.0  0.67600  0.00094  0.14432  1.0000
  Fe  Fe16      1.0  0.70890  0.28856  0.12998  1.0000
  C   C104      1.0  0.71217  0.09265  0.13063  1.0000
  S   S36       1.0  0.82605  0.38858  0.14062  1.0000
  C   C105      1.0  0.79397  0.14231  0.09793  1.0000
  H   H105      1.0  0.61306  0.96179  0.16962  1.0000
  C   C106      1.0  0.72054  0.95848  0.12432  1.0000
  Fe  Fe17      1.0  0.46760  0.92616  0.93534  1.0000
  H   H106      1.0  0.48703  0.09935  0.14765  1.0000
  H   H107      1.0  0.44374  0.35166  0.96644  1.0000
  H   H108      1.0  0.67501  0.16963  0.96800  1.0000
  S   S37       1.0  0.72018  0.36353  0.01575  1.0000
  S   S38       1.0  0.65252  0.14195  0.15484  1.0000
  C   C107      1.0  0.83896  0.09930  0.07758  1.0000
  H   H109      1.0  0.40177  0.31808  0.17181  1.0000
  C   C108      1.0  0.37456  0.03753  0.93241  1.0000
  C   C109      1.0  0.42559  0.04943  0.17097  1.0000
  H   H110      1.0  0.58182  0.77691  0.29511  1.0000
  S   S39       1.0  0.58528  0.63000  0.37602  1.0000
  S   S40       1.0  0.79586  0.50771  0.30676  1.0000
  C   C110      1.0  0.75890  0.76042  0.24246  1.0000
  H   H111      1.0  0.57075  0.64364  0.21530  1.0000
  H   H112      1.0  0.47570  0.81609  0.29962  1.0000
  C   C111      1.0  0.52435  0.73544  0.33563  1.0000
  C   C112      1.0  0.38909  0.70415  0.38938  1.0000
  Fe  Fe18      1.0  0.75948  0.45061  0.20415  1.0000
  H   H113      1.0  0.73833  0.63898  0.36102  1.0000
  H   H114      1.0  0.72686  0.68930  0.24068  1.0000
  H   H115      1.0  0.71556  0.78546  0.24998  1.0000
  N   N10       1.0  0.79647  0.77500  0.30680  1.0000
  H   H116      1.0  0.80406  0.79484  0.18550  1.0000
  C   C113      1.0  0.46405  0.75766  0.33824  1.0000
  C   C114      1.0  0.77957  0.70578  0.36320  1.0000
  C   C115      1.0  0.50966  0.65856  0.38301  1.0000
  H   H117      1.0  0.40055  0.56325  0.28264  1.0000
  C   C116      1.0  0.84865  0.85892  0.30981  1.0000
  C   C117      1.0  0.81761  0.71943  0.42286  1.0000
  H   H118      1.0  0.36720  0.66099  0.21702  1.0000
  H   H119      1.0  0.58389  0.51387  0.18184  1.0000
  H   H120      1.0  0.85195  0.65746  0.18130  1.0000
  Fe  Fe19      1.0  0.53437  0.49083  0.43657  1.0000
  H   H121      1.0  0.37804  0.71843  0.56718  1.0000
  C   C118      1.0  0.77200  0.53699  0.60206  1.0000
  C   C119      1.0  0.56692  0.71268  0.58455  1.0000
  Fe  Fe20      1.0  0.76170  0.85414  0.65493  1.0000
  C   C120      1.0  0.43065  0.71755  0.57459  1.0000
  H   H122      1.0  0.42262  0.54581  0.47213  1.0000
  H   H123      1.0  0.80603  0.66385  0.46553  1.0000
  H   H124      1.0  0.50747  0.83876  0.49019  1.0000
  C   C121      1.0  0.72766  0.57571  0.63597  1.0000
  C   C122      1.0  0.76558  0.66169  0.64852  1.0000
  H   H125      1.0  0.61984  0.70906  0.58734  1.0000
  S   S41       1.0  0.49215  0.46567  0.56661  1.0000
  C   C123      1.0  0.49275  0.64701  0.62999  1.0000
  C   C124      1.0  0.43438  0.60459  0.43428  1.0000
  C   C125      1.0  0.50380  0.78530  0.52983  1.0000
  N   N11       1.0  0.42559  0.64905  0.62335  1.0000
  H   H126      1.0  0.66390  0.53928  0.65110  1.0000
  C   C126      1.0  0.57217  0.78193  0.53402  1.0000
  H   H127      1.0  0.74266  0.47127  0.59102  1.0000
  H   H128      1.0  0.83587  0.42649  0.42961  1.0000
  H   H129      1.0  0.48934  0.59363  0.66929  1.0000
  C   C127      1.0  0.37392  0.62724  0.43733  1.0000
  H   H130      1.0  0.62888  0.83265  0.49740  1.0000
  C   C128      1.0  0.84824  0.70850  0.62805  1.0000
  S   S42       1.0  0.36267  0.63093  0.84381  1.0000
  S   S43       1.0  0.70794  0.70774  0.69175  1.0000
  C   C129      1.0  0.74093  0.78959  0.87296  1.0000
  C   C130      1.0  0.83140  0.42821  0.77096  1.0000
  H   H131      1.0  0.46720  0.80389  0.74317  1.0000
  Fe  Fe21      1.0  0.39504  0.73364  0.91881  1.0000
  C   C131      1.0  0.44698  0.85090  0.73037  1.0000
  H   H132      1.0  0.50998  0.42142  0.71840  1.0000
  H   H133      1.0  0.69355  0.90693  0.88759  1.0000
  H   H134      1.0  0.59617  0.48858  0.84564  1.0000
  H   H135      1.0  0.77425  0.70073  0.81761  1.0000
  C   C132      1.0  0.75868  0.72005  0.87221  1.0000
  H   H136      1.0  0.74311  0.82374  0.81819  1.0000
  C   C133      1.0  0.37384  0.82317  0.71471  1.0000
  C   C134      1.0  0.56745  0.41829  0.84052  1.0000
  S   S44       1.0  0.51630  0.83205  0.92233  1.0000
  H   H137      1.0  0.39822  0.57736  0.97831  1.0000
  H   H138      1.0  0.69141  0.88753  0.13596  1.0000
  Fe  Fe22      1.0  0.46756  0.79158  0.05287  1.0000
  S   S45       1.0  0.56053  0.43003  0.04840  1.0000
  H   H139      1.0  0.51690  0.54362  0.97068  1.0000
  C   C135      1.0  0.55866  0.62144  0.16223  1.0000
  Fe  Fe23      1.0  0.83125  0.47030  0.03287  1.0000
  H   H140      1.0  0.50840  0.67552  0.00270  1.0000
  C   C136      1.0  0.52212  0.63855  0.04293  1.0000
  C   C137      1.0  0.52785  0.56456  0.02457  1.0000
  H   H141      1.0  0.70394  0.79044  0.06501  1.0000
  C   C138      1.0  0.70521  0.88838  0.94278  1.0000
  C   C139      1.0  0.56615  0.54823  0.14320  1.0000
  C   C140      1.0  0.53612  0.66617  0.11214  1.0000
  Fe  Fe24      1.0  0.65718  0.42172  0.08973  1.0000
  C   C141      1.0  0.73657  0.70168  0.01197  1.0000
  C   C142      1.0  0.71926  0.77112  0.01054  1.0000
  H   H142      1.0  0.73366  0.66834  0.06733  1.0000
  C   C143      1.0  0.55020  0.51968  0.07446  1.0000
  S   S46       1.0  0.52828  0.75873  0.13349  1.0000
  H   H143      1.0  0.65328  0.87284  0.99189  1.0000
  S   S47       1.0  0.76881  0.53471  0.09729  1.0000
  H   H144      1.0  0.76867  0.62082  0.94274  1.0000
  S   S48       1.0  0.42759  0.89256  0.06585  1.0000
  C   C144      1.0  0.75593  0.67547  0.94239  1.0000
  N   N12       1.0  0.72090  0.81370  0.94186  1.0000
