data_image0
_chemical_formula_structural       H13C3H2CSNHSC2NC3HC2SHC4H2SCH2CHCHFeH2SC2HCFeC4FeSCSCFeS2C2HSHFeSH4C2SH3C3NCHC4HCH3FeCHCSHSFeCH3CHCS2HCHCNCSHC2SH3FeCNFe3C5H2SHSC2HSH2CSC2HSHCHCH2SNC2H3CSH2CSCH2FeH2FeH2SH2SCNC6FeNSCHCHCSCFeSCH3CHSC2H2FeCSH4FeHSCHCFeH2CHC2HSH2SHC3H2C3SCH3C2HCHCS3HSH2SHC4HCHC3NHC3HCSFeC2H2CSCHC2FeHSFeNCH3FeSHSC3H3CHCNH2CNSC2HC4HCHC2H4CSCFeCHSH5FeCFeC3SCSC6FeSHC3SCFeSCHCFeH5SH2CHCH2CH2C4H3CNCNFeCSCH4CSCHCH2C2HSH2S2HSHCHC2H2CFeH3CHSCSC2H3C3SC2H2C2HCHNH2CH2C2FeH2CH7SC3H3CNHFeCHCHCHSCHSCS2CH2NC2FeH2CHC6HC2H3CSHNCH2C2NC2H2CHCH2CSCSHCH2CH2C2H2NCS2FeSH2SCFe2C4H2CH2SC3FeSCSH2CH2FeH2FeC2FeC
_chemical_formula_sum              "H240 C240 S80 N20 Fe40"
_cell_length_a       21.4617
_cell_length_b       24.9922
_cell_length_c       17.9067
_cell_angle_alpha    91.0661
_cell_angle_beta     69.4672
_cell_angle_gamma    98.6617

_space_group_name_H-M_alt    "P 1"
_space_group_IT_number       1

loop_
  _space_group_symop_operation_xyz
  'x, y, z'

loop_
  _atom_site_type_symbol
  _atom_site_label
  _atom_site_symmetry_multiplicity
  _atom_site_fract_x
  _atom_site_fract_y
  _atom_site_fract_z
  _atom_site_occupancy
  H   H1        1.0  0.74918  0.43212  0.26425  1.0000
  H   H2        1.0  0.78258  0.18043  0.23744  1.0000
  H   H3        1.0  0.98140  0.16753  0.23162  1.0000
  H   H4        1.0  0.12639  0.61474  0.18570  1.0000
  H   H5        1.0  0.92858  0.46640  0.21860  1.0000
  H   H6        1.0  0.11455  0.39488  0.26292  1.0000
  H   H7        1.0  0.06108  0.35807  0.35420  1.0000
  H   H8        1.0  0.83179  0.28765  0.27024  1.0000
  H   H9        1.0  0.91760  0.63368  0.37194  1.0000
  H   H10       1.0  0.84855  0.22239  0.38746  1.0000
  H   H11       1.0  0.11802  0.25068  0.28237  1.0000
  H   H12       1.0  0.88437  0.38915  0.32232  1.0000
  H   H13       1.0  0.12155  0.61941  0.36370  1.0000
  C   C1        1.0  0.09821  0.35423  0.29357  1.0000
  C   C2        1.0  0.83969  0.37469  0.37280  1.0000
  C   C3        1.0  0.91959  0.59682  0.33932  1.0000
  H   H14       1.0  0.01194  0.58160  0.35200  1.0000
  H   H15       1.0  0.74717  0.29651  0.28167  1.0000
  C   C4        1.0  0.20544  0.36596  0.31591  1.0000
  S   S1        1.0  0.98332  0.24420  0.38965  1.0000
  N   N1        1.0  0.78843  0.33868  0.36348  1.0000
  H   H16       1.0  0.81549  0.35040  0.23797  1.0000
  S   S2        1.0  0.80577  0.61696  0.31582  1.0000
  C   C5        1.0  0.15780  0.27769  0.29406  1.0000
  C   C6        1.0  0.81616  0.16312  0.26019  1.0000
  N   N2        1.0  0.15570  0.33213  0.29994  1.0000
  C   C7        1.0  0.97298  0.56762  0.32792  1.0000
  C   C8        1.0  0.88583  0.17757  0.22548  1.0000
  C   C9        1.0  0.92589  0.50212  0.25341  1.0000
  H   H17       1.0  0.83231  0.51552  0.24355  1.0000
  C   C10       1.0  0.79589  0.31723  0.28455  1.0000
  C   C11       1.0  0.92759  0.15483  0.25673  1.0000
  S   S3        1.0  0.04799  0.48830  0.26076  1.0000
  H   H18       1.0  0.07271  0.32760  0.25904  1.0000
  C   C12       1.0  0.87113  0.52996  0.26760  1.0000
  C   C13       1.0  0.86871  0.57796  0.30906  1.0000
  C   C14       1.0  0.21124  0.25598  0.30317  1.0000
  C   C15       1.0  0.97713  0.52104  0.28319  1.0000
  H   H19       1.0  0.21254  0.21276  0.29925  1.0000
  H   H20       1.0  0.20242  0.40880  0.32389  1.0000
  S   S4        1.0  0.87104  0.49043  0.59561  1.0000
  C   C16       1.0  0.78658  0.23414  0.50859  1.0000
  H   H21       1.0  0.06604  0.40446  0.54869  1.0000
  H   H22       1.0  0.18699  0.59137  0.46913  1.0000
  C   C17       1.0  0.09006  0.54086  0.51534  1.0000
  H   H23       1.0  0.95190  0.29943  0.53539  1.0000
  C   C18       1.0  0.05631  0.48812  0.53771  1.0000
  H   H24       1.0  0.21807  0.48927  0.64980  1.0000
  Fe  Fe1       1.0  0.02605  0.21543  0.47648  1.0000
  H   H25       1.0  0.96686  0.33383  0.64621  1.0000
  H   H26       1.0  0.87648  0.42237  0.45443  1.0000
  S   S5        1.0  0.86059  0.61491  0.55958  1.0000
  C   C19       1.0  0.83570  0.39349  0.44796  1.0000
  C   C20       1.0  0.90532  0.28227  0.52782  1.0000
  H   H27       1.0  0.00231  0.48029  0.56163  1.0000
  C   C21       1.0  0.16061  0.55049  0.48511  1.0000
  Fe  Fe2       1.0  0.14728  0.18958  0.50884  1.0000
  C   C22       1.0  0.78568  0.25073  0.58397  1.0000
  C   C23       1.0  0.84741  0.23853  0.44409  1.0000
  C   C24       1.0  0.84448  0.27736  0.59271  1.0000
  C   C25       1.0  0.09259  0.44514  0.53055  1.0000
  Fe  Fe3       1.0  0.93329  0.57183  0.58928  1.0000
  S   S6        1.0  0.04491  0.59537  0.52876  1.0000
  C   C26       1.0  0.19715  0.50749  0.47879  1.0000
  S   S7        1.0  0.95538  0.18926  0.60047  1.0000
  C   C27       1.0  0.16288  0.45493  0.50240  1.0000
  Fe  Fe4       1.0  0.79391  0.53465  0.57814  1.0000
  S   S8        1.0  0.10259  0.26607  0.51740  1.0000
  S   S9        1.0  0.20654  0.40153  0.50313  1.0000
  C   C28       1.0  0.90716  0.25962  0.45535  1.0000
  C   C29       1.0  0.77880  0.37521  0.51411  1.0000
  H   H28       1.0  0.77505  0.38956  0.57278  1.0000
  S   S10       1.0  0.07507  0.14087  0.45911  1.0000
  H   H29       1.0  0.20915  0.20567  0.62226  1.0000
  Fe  Fe5       1.0  0.03541  0.23475  0.64021  1.0000
  S   S11       1.0  0.08577  0.16195  0.63489  1.0000
  H   H30       1.0  0.20829  0.58544  0.63562  1.0000
  H   H31       1.0  0.84377  0.29099  0.65055  1.0000
  H   H32       1.0  0.09891  0.38548  0.67036  1.0000
  H   H33       1.0  0.88314  0.39699  0.67180  1.0000
  C   C30       1.0  0.16406  0.55661  0.66701  1.0000
  C   C31       1.0  0.16911  0.50204  0.67464  1.0000
  S   S12       1.0  0.74357  0.50270  0.49247  1.0000
  H   H34       1.0  0.74059  0.21787  0.49971  1.0000
  H   H35       1.0  0.97228  0.16903  0.87190  1.0000
  H   H36       1.0  0.77150  0.15367  0.71928  1.0000
  C   C32       1.0  0.86626  0.40093  0.79767  1.0000
  C   C33       1.0  0.89667  0.38369  0.72017  1.0000
  C   C34       1.0  0.04412  0.53545  0.73460  1.0000
  N   N3        1.0  0.88244  0.17571  0.85012  1.0000
  C   C35       1.0  0.84331  0.21354  0.84732  1.0000
  H   H37       1.0  0.86296  0.39794  0.91811  1.0000
  C   C36       1.0  0.95880  0.32765  0.76861  1.0000
  C   C37       1.0  0.10116  0.57338  0.69708  1.0000
  C   C38       1.0  0.05085  0.48107  0.74047  1.0000
  C   C39       1.0  0.17502  0.28772  0.89254  1.0000
  H   H38       1.0  0.94195  0.33182  0.89415  1.0000
  C   C40       1.0  0.80220  0.15958  0.75651  1.0000
  H   H39       1.0  0.00628  0.45161  0.76804  1.0000
  H   H40       1.0  0.99491  0.54775  0.75752  1.0000
  H   H41       1.0  0.17057  0.40123  0.70132  1.0000
  Fe  Fe6       1.0  0.81150  0.62245  0.69137  1.0000
  C   C41       1.0  0.17670  0.28725  0.75729  1.0000
  H   H42       1.0  0.77245  0.23661  0.79784  1.0000
  C   C42       1.0  0.88422  0.38294  0.85933  1.0000
  S   S13       1.0  0.80498  0.44407  0.82059  1.0000
  H   H43       1.0  0.15157  0.27560  0.71517  1.0000
  S   S14       1.0  0.88891  0.58484  0.72012  1.0000
  Fe  Fe7       1.0  0.82256  0.50602  0.72454  1.0000
  C   C43       1.0  0.80303  0.20627  0.80015  1.0000
  H   H44       1.0  0.08805  0.38976  0.77532  1.0000
  H   H45       1.0  0.21547  0.57758  0.88398  1.0000
  H   H46       1.0  0.93344  0.22620  0.91530  1.0000
  C   C44       1.0  0.93012  0.34642  0.84514  1.0000
  H   H47       1.0  0.09670  0.61547  0.68946  1.0000
  C   C45       1.0  0.14299  0.27277  0.83805  1.0000
  S   S15       1.0  0.18180  0.45318  0.85406  1.0000
  S   S16       1.0  0.01395  0.28002  0.75391  1.0000
  H   H48       1.0  0.09209  0.25066  0.85827  1.0000
  C   C46       1.0  0.92289  0.18292  0.90172  1.0000
  H   H49       1.0  0.84298  0.24969  0.88156  1.0000
  C   C47       1.0  0.94321  0.34714  0.70572  1.0000
  N   N4        1.0  0.11279  0.46505  0.71076  1.0000
  C   C48       1.0  0.11784  0.40746  0.71450  1.0000
  S   S17       1.0  0.74023  0.54486  0.70861  1.0000
  H   H50       1.0  0.73989  0.60425  0.88138  1.0000
  C   C49       1.0  0.76729  0.59746  0.92023  1.0000
  C   C50       1.0  0.80530  0.34811  0.06295  1.0000
  S   S18       1.0  0.13591  0.39737  0.07546  1.0000
  H   H51       1.0  0.86935  0.29557  0.08276  1.0000
  H   H52       1.0  0.87577  0.52902  0.08260  1.0000
  H   H53       1.0  0.79279  0.49733  0.02665  1.0000
  Fe  Fe8       1.0  0.05210  0.43878  0.15485  1.0000
  C   C51       1.0  0.79708  0.53787  0.00264  1.0000
  N   N5        1.0  0.83738  0.58040  0.02003  1.0000
  Fe  Fe9       1.0  0.05497  0.32719  0.08560  1.0000
  Fe  Fe10      1.0  0.95613  0.39891  0.06961  1.0000
  Fe  Fe11      1.0  0.10755  0.42626  0.97557  1.0000
  C   C52       1.0  0.19246  0.26082  0.09381  1.0000
  C   C53       1.0  0.13077  0.17189  0.14365  1.0000
  C   C54       1.0  0.84343  0.63122  0.98847  1.0000
  C   C55       1.0  0.74929  0.35102  0.04123  1.0000
  C   C56       1.0  0.87168  0.57243  0.07592  1.0000
  H   H54       1.0  0.92380  0.59501  0.05456  1.0000
  H   H55       1.0  0.84354  0.58701  0.13556  1.0000
  S   S19       1.0  0.03041  0.35349  0.98186  1.0000
  H   H56       1.0  0.80425  0.21209  0.05454  1.0000
  S   S20       1.0  0.05851  0.24033  0.10676  1.0000
  C   C57       1.0  0.18840  0.15668  0.15063  1.0000
  C   C58       1.0  0.78852  0.25055  0.05130  1.0000
  H   H57       1.0  0.14928  0.27692  0.95525  1.0000
  S   S21       1.0  0.03113  0.47430  0.05389  1.0000
  H   H58       1.0  0.19421  0.30115  0.07207  1.0000
  H   H59       1.0  0.17123  0.58253  0.98943  1.0000
  C   C59       1.0  0.13242  0.22385  0.11518  1.0000
  S   S22       1.0  0.85049  0.40805  0.08214  1.0000
  C   C60       1.0  0.76112  0.54587  0.95301  1.0000
  C   C61       1.0  0.82547  0.29791  0.06716  1.0000
  H   H60       1.0  0.89608  0.15892  0.95840  1.0000
  S   S23       1.0  0.97391  0.36564  0.17372  1.0000
  H   H61       1.0  0.08515  0.14269  0.15947  1.0000
  C   C62       1.0  0.21733  0.59879  0.93847  1.0000
  H   H62       1.0  0.90771  0.20640  0.17514  1.0000
  C   C63       1.0  0.78945  0.12622  0.32503  1.0000
  H   H63       1.0  0.18040  0.88432  0.28997  1.0000
  H   H64       1.0  0.91921  0.00766  0.22405  1.0000
  S   S24       1.0  0.05439  0.99431  0.20638  1.0000
  N   N6        1.0  0.90095  0.11769  0.31911  1.0000
  C   C64       1.0  0.97064  0.93508  0.40261  1.0000
  C   C65       1.0  0.11290  0.69861  0.18654  1.0000
  H   H65       1.0  0.81127  0.07540  0.40481  1.0000
  H   H66       1.0  0.96758  0.96944  0.36654  1.0000
  H   H67       1.0  0.06381  0.88639  0.29647  1.0000
  C   C66       1.0  0.22542  0.65500  0.31473  1.0000
  S   S25       1.0  0.09889  0.80569  0.18774  1.0000
  H   H68       1.0  0.22252  0.93500  0.38786  1.0000
  H   H69       1.0  0.95890  0.12414  0.39375  1.0000
  C   C67       1.0  0.14801  0.90730  0.33516  1.0000
  S   S26       1.0  0.79324  0.76507  0.28999  1.0000
  C   C68       1.0  0.06138  0.70718  0.40279  1.0000
  H   H70       1.0  0.03129  0.67263  0.38518  1.0000
  H   H71       1.0  0.95189  0.89693  0.37939  1.0000
  Fe  Fe12      1.0  0.85704  0.70254  0.29077  1.0000
  H   H72       1.0  0.04764  0.74497  0.38548  1.0000
  H   H73       1.0  0.81376  0.89140  0.28176  1.0000
  Fe  Fe13      1.0  0.98682  0.78240  0.23069  1.0000
  H   H74       1.0  0.99308  0.08868  0.30284  1.0000
  H   H75       1.0  0.05867  0.68986  0.21444  1.0000
  S   S27       1.0  0.22718  0.03018  0.23117  1.0000
  H   H76       1.0  0.76246  0.95493  0.22718  1.0000
  H   H77       1.0  0.92195  0.05571  0.38318  1.0000
  S   S28       1.0  0.93224  0.85067  0.22417  1.0000
  C   C69       1.0  0.83271  0.10375  0.35402  1.0000
  N   N7        1.0  0.04029  0.93581  0.39766  1.0000
  C   C70       1.0  0.94588  0.09538  0.35156  1.0000
  C   C71       1.0  0.17797  0.75315  0.34708  1.0000
  C   C72       1.0  0.78463  0.91879  0.32090  1.0000
  C   C73       1.0  0.08188  0.90809  0.33956  1.0000
  C   C74       1.0  0.75441  0.95421  0.28989  1.0000
  C   C75       1.0  0.15656  0.65707  0.34986  1.0000
  Fe  Fe14      1.0  0.85849  0.81848  0.34309  1.0000
  N   N8        1.0  0.13363  0.70577  0.36471  1.0000
  S   S29       1.0  0.91689  0.75378  0.35417  1.0000
  C   C76       1.0  0.17174  0.93604  0.38979  1.0000
  H   H78       1.0  0.15975  0.79163  0.35989  1.0000
  C   C77       1.0  0.77588  0.91844  0.40206  1.0000
  H   H79       1.0  0.99869  0.93028  0.62254  1.0000
  C   C78       1.0  0.12975  0.96597  0.44692  1.0000
  S   S30       1.0  0.21513  0.89545  0.54630  1.0000
  C   C79       1.0  0.02077  0.95545  0.65944  1.0000
  Fe  Fe15      1.0  0.01017  0.11879  0.58658  1.0000
  S   S31       1.0  0.06597  0.82280  0.50794  1.0000
  C   C80       1.0  0.98272  0.75614  0.63318  1.0000
  H   H80       1.0  0.93141  0.83656  0.52211  1.0000
  H   H81       1.0  0.79056  0.96448  0.61201  1.0000
  H   H82       1.0  0.03157  0.98906  0.49366  1.0000
  C   C81       1.0  0.06393  0.96576  0.44942  1.0000
  H   H83       1.0  0.04737  0.70497  0.46867  1.0000
  S   S32       1.0  0.95634  0.03491  0.63157  1.0000
  C   C82       1.0  0.86491  0.78289  0.61987  1.0000
  C   C83       1.0  0.98705  0.79413  0.57474  1.0000
  H   H84       1.0  0.77493  0.69866  0.56736  1.0000
  H   H85       1.0  0.08267  0.89789  0.66706  1.0000
  Fe  Fe16      1.0  0.22053  0.76355  0.64816  1.0000
  C   C84       1.0  0.92815  0.80778  0.56820  1.0000
  S   S33       1.0  0.23291  0.76907  0.51823  1.0000
  H   H86       1.0  0.93664  0.93733  0.46541  1.0000
  H   H87       1.0  0.78485  0.66521  0.47573  1.0000
  H   H88       1.0  0.86542  0.91366  0.65191  1.0000
  H   H89       1.0  0.02784  0.74383  0.63644  1.0000
  Fe  Fe17      1.0  0.14701  0.81674  0.55822  1.0000
  H   H90       1.0  0.14739  0.98834  0.48998  1.0000
  S   S34       1.0  0.80902  0.87104  0.44215  1.0000
  C   C85       1.0  0.74920  0.68566  0.52444  1.0000
  H   H91       1.0  0.81958  0.79184  0.61251  1.0000
  C   C86       1.0  0.76950  0.93614  0.66300  1.0000
  Fe  Fe18      1.0  0.19844  0.88084  0.67456  1.0000
  H   H92       1.0  0.73934  0.72223  0.49892  1.0000
  H   H93       1.0  0.10366  0.04559  0.78853  1.0000
  C   C87       1.0  0.08076  0.02034  0.75250  1.0000
  H   H94       1.0  0.05320  0.86626  0.83389  1.0000
  C   C88       1.0  0.91978  0.73134  0.68458  1.0000
  C   C89       1.0  0.86090  0.74422  0.67760  1.0000
  H   H95       1.0  0.91700  0.70106  0.72835  1.0000
  S   S35       1.0  0.78420  0.70407  0.73041  1.0000
  H   H96       1.0  0.81421  0.68061  0.91203  1.0000
  H   H97       1.0  0.84118  0.08424  0.72709  1.0000
  S   S36       1.0  0.16663  0.94976  0.75212  1.0000
  H   H98       1.0  0.96547  0.93921  0.88409  1.0000
  C   C90       1.0  0.00469  0.00735  0.67787  1.0000
  C   C91       1.0  0.81161  0.90751  0.68527  1.0000
  C   C92       1.0  0.84142  0.12078  0.76061  1.0000
  H   H99       1.0  0.22794  0.03459  0.83389  1.0000
  H   H100      1.0  0.91093  0.09880  0.81204  1.0000
  C   C93       1.0  0.05419  0.87219  0.89360  1.0000
  C   C94       1.0  0.03291  0.03891  0.72682  1.0000
  C   C95       1.0  0.78390  0.87095  0.75095  1.0000
  S   S37       1.0  0.12781  0.80324  0.68860  1.0000
  C   C96       1.0  0.10050  0.97010  0.72913  1.0000
  H   H101      1.0  0.81689  0.84855  0.76768  1.0000
  H   H102      1.0  0.15406  0.85168  0.86226  1.0000
  H   H103      1.0  0.01838  0.07790  0.74471  1.0000
  C   C97       1.0  0.88156  0.12959  0.80795  1.0000
  C   C98       1.0  0.06903  0.93712  0.68445  1.0000
  H   H104      1.0  0.92314  0.86955  0.90528  1.0000
  C   C99       1.0  0.11129  0.86350  0.90961  1.0000
  H   H105      1.0  0.23067  0.08851  0.67668  1.0000
  C   C100      1.0  0.03031  0.03282  0.00050  1.0000
  S   S38       1.0  0.74988  0.05889  0.94454  1.0000
  S   S39       1.0  0.84363  0.80534  0.06451  1.0000
  S   S40       1.0  0.74351  0.97406  0.08547  1.0000
  H   H106      1.0  0.11142  0.01715  0.03578  1.0000
  S   S41       1.0  0.77789  0.10502  0.10518  1.0000
  H   H107      1.0  0.86805  0.02774  0.12542  1.0000
  H   H108      1.0  0.87435  0.66520  0.00336  1.0000
  S   S42       1.0  0.92537  0.04491  0.95349  1.0000
  H   H109      1.0  0.15896  0.86903  0.99816  1.0000
  C   C101      1.0  0.94642  0.90515  0.92942  1.0000
  C   C102      1.0  0.92148  0.02655  0.10596  1.0000
  C   C103      1.0  0.77700  0.75410  0.06901  1.0000
  C   C104      1.0  0.22141  0.66737  0.13424  1.0000
  H   H110      1.0  0.96174  0.91366  0.07171  1.0000
  C   C105      1.0  0.17638  0.68594  0.97358  1.0000
  H   H111      1.0  0.06117  0.03842  0.93795  1.0000
  C   C106      1.0  0.75910  0.71153  0.12547  1.0000
  C   C107      1.0  0.15117  0.65621  0.17004  1.0000
  C   C108      1.0  0.05916  0.02149  0.05631  1.0000
  N   N9        1.0  0.00201  0.89106  0.95089  1.0000
  H   H112      1.0  0.06161  0.89856  0.10323  1.0000
  C   C109      1.0  0.96144  0.03500  0.02507  1.0000
  C   C110      1.0  0.21538  0.76321  0.13236  1.0000
  C   C111      1.0  0.00328  0.89893  0.02612  1.0000
  H   H113      1.0  0.90633  0.91838  0.98177  1.0000
  C   C112      1.0  0.11419  0.87350  0.98529  1.0000
  S   S43       1.0  0.22149  0.92603  0.11828  1.0000
  Fe  Fe19      1.0  0.81518  0.04436  0.01350  1.0000
  C   C113      1.0  0.14518  0.75209  0.16806  1.0000
  C   C114      1.0  0.05948  0.89040  0.04435  1.0000
  H   H114      1.0  0.75460  0.78878  0.97426  1.0000
  H   H115      1.0  0.14654  0.76450  0.00281  1.0000
  C   C115      1.0  0.18391  0.74219  0.96337  1.0000
  S   S44       1.0  0.23305  0.04827  0.04720  1.0000
  C   C116      1.0  0.73920  0.75690  0.01985  1.0000
  H   H116      1.0  0.13267  0.66536  0.02084  1.0000
  C   C117      1.0  0.01950  0.01258  0.13703  1.0000
  C   C118      1.0  0.95051  0.01532  0.16191  1.0000
  Fe  Fe20      1.0  0.16693  0.99749  0.15568  1.0000
  H   H117      1.0  0.79041  0.70669  0.15974  1.0000
  S   S45       1.0  0.93210  0.72545  0.16840  1.0000
  Fe  Fe21      1.0  0.87198  0.79141  0.17104  1.0000
  N   N10       1.0  0.22422  0.65747  0.92594  1.0000
  C   C119      1.0  0.80915  0.64037  0.93740  1.0000
  H   H118      1.0  0.18533  0.11684  0.17459  1.0000
  H   H119      1.0  0.64098  0.58449  0.35391  1.0000
  H   H120      1.0  0.56792  0.58748  0.27323  1.0000
  Fe  Fe22      1.0  0.45329  0.40839  0.35305  1.0000
  S   S46       1.0  0.51131  0.36596  0.24610  1.0000
  H   H121      1.0  0.65832  0.22783  0.19848  1.0000
  S   S47       1.0  0.64118  0.18415  0.35196  1.0000
  C   C120      1.0  0.54924  0.31719  0.27653  1.0000
  C   C121      1.0  0.59435  0.51432  0.21323  1.0000
  C   C122      1.0  0.53361  0.30486  0.35753  1.0000
  H   H122      1.0  0.43472  0.22809  0.30383  1.0000
  H   H123      1.0  0.30416  0.27405  0.32603  1.0000
  H   H124      1.0  0.29915  0.37257  0.33717  1.0000
  C   C123      1.0  0.43838  0.20183  0.25218  1.0000
  H   H125      1.0  0.56293  0.51562  0.17736  1.0000
  C   C124      1.0  0.59455  0.28956  0.21942  1.0000
  N   N11       1.0  0.66928  0.46936  0.25390  1.0000
  H   H126      1.0  0.70418  0.50799  0.34264  1.0000
  H   H127      1.0  0.49928  0.32610  0.40225  1.0000
  C   C125      1.0  0.70115  0.42137  0.25307  1.0000
  N   N12       1.0  0.43142  0.14497  0.27685  1.0000
  S   S48       1.0  0.39081  0.47396  0.35878  1.0000
  C   C126      1.0  0.59718  0.55472  0.26711  1.0000
  C   C127      1.0  0.63115  0.47178  0.20713  1.0000
  H   H128      1.0  0.71297  0.40205  0.19439  1.0000
  C   C128      1.0  0.62376  0.24951  0.24312  1.0000
  C   C129      1.0  0.67363  0.50953  0.30567  1.0000
  C   C130      1.0  0.60650  0.23617  0.32416  1.0000
  C   C131      1.0  0.26017  0.34570  0.32391  1.0000
  H   H129      1.0  0.66615  0.39114  0.29917  1.0000
  C   C132      1.0  0.56139  0.26394  0.38138  1.0000
  H   H130      1.0  0.53391  0.15115  0.26900  1.0000
  C   C133      1.0  0.63794  0.55293  0.31265  1.0000
  C   C134      1.0  0.26282  0.29036  0.31787  1.0000
  H   H131      1.0  0.24293  0.61621  0.30061  1.0000
  H   H132      1.0  0.39859  0.20857  0.22856  1.0000
  H   H133      1.0  0.69181  0.29146  0.42121  1.0000
  H   H134      1.0  0.48759  0.21463  0.20384  1.0000
  C   C135      1.0  0.29009  0.19785  0.66288  1.0000
  S   S49       1.0  0.50745  0.45218  0.42755  1.0000
  C   C136      1.0  0.53810  0.39897  0.59944  1.0000
  Fe  Fe23      1.0  0.60134  0.15821  0.48207  1.0000
  C   C137      1.0  0.36608  0.18968  0.50142  1.0000
  H   H135      1.0  0.54723  0.25378  0.44401  1.0000
  S   S50       1.0  0.48008  0.60176  0.44631  1.0000
  H   H136      1.0  0.44924  0.18793  0.54081  1.0000
  H   H137      1.0  0.40242  0.56620  0.61027  1.0000
  H   H138      1.0  0.68207  0.32442  0.55537  1.0000
  H   H139      1.0  0.39576  0.18620  0.43932  1.0000
  H   H140      1.0  0.58057  0.54903  0.51895  1.0000
  Fe  Fe24      1.0  0.43912  0.51355  0.44337  1.0000
  C   C138      1.0  0.66643  0.46063  0.53644  1.0000
  Fe  Fe25      1.0  0.42591  0.40630  0.53089  1.0000
  C   C139      1.0  0.38660  0.60282  0.59729  1.0000
  C   C140      1.0  0.33239  0.62244  0.65478  1.0000
  C   C141      1.0  0.39622  0.18976  0.55924  1.0000
  S   S51       1.0  0.57900  0.22006  0.57553  1.0000
  C   C142      1.0  0.27568  0.33076  0.64717  1.0000
  S   S52       1.0  0.25849  0.18759  0.45285  1.0000
  C   C143      1.0  0.57937  0.39246  0.52099  1.0000
  C   C144      1.0  0.26054  0.19958  0.60470  1.0000
  C   C145      1.0  0.56260  0.43393  0.64796  1.0000
  C   C146      1.0  0.64251  0.42451  0.48880  1.0000
  C   C147      1.0  0.72648  0.33882  0.50421  1.0000
  C   C148      1.0  0.29767  0.19340  0.52431  1.0000
  Fe  Fe26      1.0  0.31730  0.42675  0.46768  1.0000
  S   S53       1.0  0.36074  0.47068  0.55192  1.0000
  H   H141      1.0  0.56086  0.36491  0.48369  1.0000
  C   C149      1.0  0.41945  0.63024  0.52317  1.0000
  C   C150      1.0  0.59925  0.57914  0.55366  1.0000
  C   C151      1.0  0.35766  0.19169  0.64021  1.0000
  S   S54       1.0  0.37606  0.35859  0.45528  1.0000
  C   C152      1.0  0.62727  0.46414  0.61684  1.0000
  Fe  Fe27      1.0  0.63936  0.17901  0.62885  1.0000
  S   S55       1.0  0.45236  0.37335  0.62929  1.0000
  C   C153      1.0  0.66172  0.61195  0.51921  1.0000
  H   H142      1.0  0.25157  0.51525  0.45761  1.0000
  C   C154      1.0  0.56214  0.58386  0.63412  1.0000
  Fe  Fe28      1.0  0.49273  0.15833  0.64625  1.0000
  H   H143      1.0  0.69154  0.60651  0.45753  1.0000
  H   H144      1.0  0.32250  0.31222  0.62414  1.0000
  H   H145      1.0  0.64416  0.49296  0.65362  1.0000
  H   H146      1.0  0.28936  0.37526  0.63971  1.0000
  H   H147      1.0  0.51445  0.55766  0.66209  1.0000
  S   S56       1.0  0.71224  0.23535  0.66763  1.0000
  H   H148      1.0  0.24442  0.31742  0.61008  1.0000
  H   H149      1.0  0.67291  0.42122  0.42700  1.0000
  C   C155      1.0  0.73216  0.32069  0.42800  1.0000
  H   H150      1.0  0.69813  0.34088  0.73647  1.0000
  C   C156      1.0  0.57243  0.31940  0.75080  1.0000
  H   H151      1.0  0.30465  0.59939  0.71012  1.0000
  H   H152      1.0  0.32277  0.35342  0.76392  1.0000
  C   C157      1.0  0.31723  0.46833  0.77492  1.0000
  H   H153      1.0  0.48378  0.27837  0.73064  1.0000
  H   H154      1.0  0.30486  0.45819  0.72247  1.0000
  C   C158      1.0  0.34897  0.49607  0.91042  1.0000
  C   C159      1.0  0.28153  0.48096  0.91706  1.0000
  C   C160      1.0  0.40068  0.49634  0.83618  1.0000
  C   C161      1.0  0.26563  0.46809  0.84894  1.0000
  H   H155      1.0  0.42426  0.48110  0.71112  1.0000
  H   H156      1.0  0.69145  0.41182  0.74570  1.0000
  H   H157      1.0  0.40728  0.33361  0.82554  1.0000
  C   C162      1.0  0.58757  0.62129  0.67903  1.0000
  N   N13       1.0  0.59769  0.35966  0.78998  1.0000
  C   C163      1.0  0.46041  0.34025  0.81698  1.0000
  N   N14       1.0  0.24050  0.31569  0.73172  1.0000
  Fe  Fe29      1.0  0.48044  0.58629  0.91103  1.0000
  C   C164      1.0  0.55574  0.39059  0.84209  1.0000
  S   S57       1.0  0.48457  0.51883  0.82718  1.0000
  C   C165      1.0  0.27230  0.33053  0.78470  1.0000
  H   H158      1.0  0.45356  0.40650  0.89691  1.0000
  H   H159      1.0  0.26465  0.32967  0.90829  1.0000
  H   H160      1.0  0.57587  0.42357  0.87141  1.0000
  H   H161      1.0  0.53007  0.44039  0.70778  1.0000
  C   C166      1.0  0.50351  0.30911  0.76367  1.0000
  S   S58       1.0  0.39241  0.18217  0.71299  1.0000
  C   C167      1.0  0.67015  0.37108  0.77515  1.0000
  H   H162      1.0  0.26038  0.20017  0.72535  1.0000
  C   C168      1.0  0.38475  0.48131  0.76867  1.0000
  H   H163      1.0  0.60548  0.29547  0.70846  1.0000
  H   H164      1.0  0.67958  0.36993  0.83230  1.0000
  C   C169      1.0  0.48643  0.38108  0.85687  1.0000
  C   C170      1.0  0.23994  0.31703  0.86604  1.0000
  H   H165      1.0  0.55942  0.62434  0.74205  1.0000
  S   S59       1.0  0.26838  0.61423  0.11677  1.0000
  H   H166      1.0  0.60592  0.29844  0.15689  1.0000
  H   H167      1.0  0.73437  0.38984  0.03616  1.0000
  S   S60       1.0  0.68471  0.19511  0.00951  1.0000
  S   S61       1.0  0.44314  0.57455  0.04323  1.0000
  H   H168      1.0  0.36076  0.50763  0.96298  1.0000
  S   S62       1.0  0.32264  0.16809  0.12390  1.0000
  H   H169      1.0  0.67143  0.30666  0.00463  1.0000
  C   C171      1.0  0.25123  0.24476  0.09839  1.0000
  H   H170      1.0  0.24191  0.48151  0.97442  1.0000
  C   C172      1.0  0.24933  0.19208  0.12547  1.0000
  C   C173      1.0  0.71400  0.30398  0.02269  1.0000
  H   H171      1.0  0.29810  0.27261  0.07962  1.0000
  H   H172      1.0  0.62745  0.43984  0.16632  1.0000
  C   C174      1.0  0.73246  0.25349  0.02942  1.0000
  Fe  Fe30      1.0  0.37793  0.63673  0.04524  1.0000
  H   H173      1.0  0.54893  0.15741  0.01730  1.0000
  H   H174      1.0  0.45341  0.19077  0.99438  1.0000
  H   H175      1.0  0.72928  0.51206  0.93930  1.0000
  C   C175      1.0  0.46910  0.15299  0.96950  1.0000
  H   H176      1.0  0.26079  0.58900  0.95279  1.0000
  S   S63       1.0  0.58267  0.63661  0.11764  1.0000
  C   C176      1.0  0.61015  0.85229  0.27768  1.0000
  S   S64       1.0  0.33141  0.91663  0.25285  1.0000
  C   C177      1.0  0.46831  0.92191  0.20062  1.0000
  C   C178      1.0  0.37026  0.11245  0.29641  1.0000
  H   H177      1.0  0.28193  0.79059  0.29634  1.0000
  H   H178      1.0  0.62311  0.86992  0.32720  1.0000
  H   H179      1.0  0.41249  0.99564  0.34500  1.0000
  C   C179      1.0  0.45792  0.78135  0.23972  1.0000
  C   C180      1.0  0.60722  0.72398  0.39584  1.0000
  C   C181      1.0  0.36279  0.05827  0.32087  1.0000
  S   S65       1.0  0.66615  0.02580  0.30507  1.0000
  C   C182      1.0  0.24724  0.75269  0.31149  1.0000
  C   C183      1.0  0.47982  0.07148  0.30813  1.0000
  H   H180      1.0  0.32689  0.12834  0.29293  1.0000
  H   H181      1.0  0.50776  0.82280  0.34946  1.0000
  C   C184      1.0  0.41796  0.03773  0.32652  1.0000
  C   C185      1.0  0.48561  0.12534  0.28332  1.0000
  H   H182      1.0  0.31472  0.03217  0.33484  1.0000
  C   C186      1.0  0.54461  0.82665  0.28963  1.0000
  H   H183      1.0  0.63148  0.68718  0.39092  1.0000
  N   N15       1.0  0.52698  0.80746  0.22656  1.0000
  H   H184      1.0  0.68610  0.64301  0.18360  1.0000
  H   H185      1.0  0.46520  0.93122  0.26082  1.0000
  C   C187      1.0  0.71253  0.98741  0.34051  1.0000
  H   H186      1.0  0.52330  0.05623  0.31266  1.0000
  H   H187      1.0  0.42179  0.79452  0.29594  1.0000
  C   C188      1.0  0.27091  0.70314  0.29498  1.0000
  C   C189      1.0  0.40969  0.90854  0.18257  1.0000
  Fe  Fe31      1.0  0.28799  0.96374  0.18348  1.0000
  H   H188      1.0  0.45512  0.73664  0.24242  1.0000
  H   H189      1.0  0.44150  0.79316  0.19075  1.0000
  C   C190      1.0  0.65826  0.85635  0.20095  1.0000
  H   H190      1.0  0.32413  0.70181  0.26561  1.0000
  H   H191      1.0  0.49908  0.96820  0.39206  1.0000
  H   H192      1.0  0.63718  0.75138  0.34330  1.0000
  H   H193      1.0  0.67375  0.81999  0.41727  1.0000
  H   H194      1.0  0.55621  0.71172  0.39273  1.0000
  H   H195      1.0  0.70964  0.87515  0.19044  1.0000
  H   H196      1.0  0.73539  0.11510  0.35268  1.0000
  S   S66       1.0  0.39827  0.87412  0.42283  1.0000
  C   C191      1.0  0.70547  0.98821  0.42115  1.0000
  C   C192      1.0  0.33808  0.00861  0.56089  1.0000
  C   C193      1.0  0.53534  0.96982  0.48984  1.0000
  H   H197      1.0  0.52230  0.72586  0.67072  1.0000
  H   H198      1.0  0.53132  0.68431  0.54122  1.0000
  H   H199      1.0  0.67469  0.01482  0.46035  1.0000
  C   C194      1.0  0.40307  0.68041  0.51004  1.0000
  N   N16       1.0  0.68603  0.64899  0.56338  1.0000
  H   H200      1.0  0.27095  0.05738  0.53872  1.0000
  Fe  Fe32      1.0  0.29906  0.84718  0.51898  1.0000
  C   C195      1.0  0.56071  0.72344  0.54166  1.0000
  H   H201      1.0  0.66617  0.86181  0.54554  1.0000
  C   C196      1.0  0.29111  0.04435  0.58185  1.0000
  H   H202      1.0  0.42716  0.82837  0.55183  1.0000
  C   C197      1.0  0.45665  0.89665  0.46858  1.0000
  H   H203      1.0  0.73050  0.95457  0.51461  1.0000
  S   S67       1.0  0.50922  0.09892  0.54839  1.0000
  C   C198      1.0  0.59495  0.79598  0.61616  1.0000
  H   H204      1.0  0.35467  0.99290  0.50141  1.0000
  S   S68       1.0  0.66756  0.11992  0.53147  1.0000
  C   C199      1.0  0.36276  0.99210  0.61764  1.0000
  S   S69       1.0  0.28957  0.84044  0.64714  1.0000
  S   S70       1.0  0.57033  0.97632  0.62318  1.0000
  C   C200      1.0  0.49649  0.89063  0.57875  1.0000
  H   H205      1.0  0.56465  0.00947  0.47229  1.0000
  H   H206      1.0  0.49442  0.86921  0.63142  1.0000
  N   N17       1.0  0.60229  0.74978  0.47155  1.0000
  C   C201      1.0  0.31238  0.67044  0.63892  1.0000
  C   C202      1.0  0.45778  0.86769  0.53404  1.0000
  Fe  Fe33      1.0  0.57420  0.06581  0.60515  1.0000
  H   H207      1.0  0.42917  0.70255  0.45369  1.0000
  H   H208      1.0  0.39812  0.96362  0.60289  1.0000
  C   C203      1.0  0.64015  0.79891  0.47236  1.0000
  H   H209      1.0  0.33712  0.73901  0.55715  1.0000
  C   C204      1.0  0.63672  0.82274  0.54468  1.0000
  C   C205      1.0  0.55591  0.74634  0.61500  1.0000
  C   C206      1.0  0.49811  0.94637  0.44405  1.0000
  C   C207      1.0  0.64981  0.65401  0.64242  1.0000
  C   C208      1.0  0.35001  0.70069  0.56826  1.0000
  C   C209      1.0  0.53328  0.94278  0.55854  1.0000
  H   H210      1.0  0.59282  0.81391  0.67229  1.0000
  C   C210      1.0  0.73757  0.95422  0.45184  1.0000
  C   C211      1.0  0.26923  0.06264  0.65979  1.0000
  H   H211      1.0  0.62117  0.88687  0.80802  1.0000
  H   H212      1.0  0.70420  0.84432  0.91246  1.0000
  H   H213      1.0  0.44547  0.93817  0.76236  1.0000
  C   C212      1.0  0.46562  0.82578  0.85041  1.0000
  S   S71       1.0  0.41018  0.64388  0.91251  1.0000
  H   H214      1.0  0.24780  0.81289  0.89522  1.0000
  N   N18       1.0  0.71620  0.86331  0.79339  1.0000
  C   C213      1.0  0.43460  0.90562  0.80622  1.0000
  H   H215      1.0  0.66911  0.68310  0.67783  1.0000
  H   H216      1.0  0.25250  0.10498  0.79912  1.0000
  C   C214      1.0  0.24069  0.76923  0.90372  1.0000
  C   C215      1.0  0.47950  0.86863  0.79516  1.0000
  N   N19       1.0  0.29510  0.04725  0.71444  1.0000
  C   C216      1.0  0.37783  0.90238  0.87547  1.0000
  C   C217      1.0  0.28881  0.73981  0.85492  1.0000
  H   H217      1.0  0.33266  0.76032  0.80759  1.0000
  H   H218      1.0  0.31640  0.66079  0.82747  1.0000
  C   C218      1.0  0.68920  0.82592  0.86327  1.0000
  H   H219      1.0  0.39270  0.13646  0.91624  1.0000
  C   C219      1.0  0.27951  0.68357  0.86668  1.0000
  H   H220      1.0  0.36010  0.99862  0.73794  1.0000
  H   H221      1.0  0.52534  0.87389  0.74378  1.0000
  C   C220      1.0  0.70051  0.92839  0.70697  1.0000
  S   S72       1.0  0.55135  0.12171  0.70783  1.0000
  C   C221      1.0  0.45540  0.07355  0.89480  1.0000
  S   S73       1.0  0.52371  0.78039  0.83336  1.0000
  H   H222      1.0  0.66735  0.95072  0.69045  1.0000
  C   C222      1.0  0.52773  0.00390  0.87514  1.0000
  H   H223      1.0  0.31063  0.07029  0.82244  1.0000
  H   H224      1.0  0.70800  0.78652  0.84827  1.0000
  C   C223      1.0  0.67462  0.89194  0.77293  1.0000
  H   H225      1.0  0.42841  0.04969  0.86128  1.0000
  H   H226      1.0  0.48908  0.97035  0.91035  1.0000
  C   C224      1.0  0.27010  0.06520  0.79663  1.0000
  C   C225      1.0  0.34091  0.01208  0.69432  1.0000
  H   H227      1.0  0.53169  0.00149  0.81157  1.0000
  H   H228      1.0  0.63328  0.81751  0.88538  1.0000
  N   N20       1.0  0.50850  0.05579  0.90695  1.0000
  C   C226      1.0  0.40695  0.82073  0.91832  1.0000
  S   S74       1.0  0.23784  0.69045  0.70418  1.0000
  S   S75       1.0  0.56536  0.65165  0.90662  1.0000
  Fe  Fe34      1.0  0.49140  0.70886  0.91907  1.0000
  S   S76       1.0  0.32681  0.95293  0.89044  1.0000
  H   H229      1.0  0.57704  0.99792  0.87821  1.0000
  H   H230      1.0  0.64906  0.72332  0.99668  1.0000
  S   S77       1.0  0.62641  0.05206  0.11571  1.0000
  C   C227      1.0  0.70030  0.67480  0.13813  1.0000
  Fe  Fe35      1.0  0.70805  0.11585  0.04077  1.0000
  Fe  Fe36      1.0  0.29199  0.97975  0.01602  1.0000
  C   C228      1.0  0.53140  0.92639  0.13953  1.0000
  C   C229      1.0  0.25350  0.72080  0.11466  1.0000
  C   C230      1.0  0.47757  0.89765  0.04442  1.0000
  C   C231      1.0  0.52253  0.13417  0.98262  1.0000
  H   H231      1.0  0.24037  0.80463  0.11823  1.0000
  H   H232      1.0  0.36907  0.88447  0.09082  1.0000
  C   C232      1.0  0.67982  0.71996  0.03249  1.0000
  H   H233      1.0  0.57649  0.93868  0.15335  1.0000
  H   H234      1.0  0.31979  0.85731  0.98560  1.0000
  S   S78       1.0  0.36190  0.01434  0.07875  1.0000
  C   C233      1.0  0.41435  0.89510  0.10484  1.0000
  C   C234      1.0  0.54154  0.08505  0.95100  1.0000
  C   C235      1.0  0.65953  0.67983  0.09342  1.0000
  Fe  Fe37      1.0  0.29547  0.07796  0.12095  1.0000
  S   S79       1.0  0.45391  0.70706  0.05328  1.0000
  C   C236      1.0  0.53587  0.91544  0.06105  1.0000
  S   S80       1.0  0.61358  0.92817  0.98291  1.0000
  H   H235      1.0  0.58276  0.07052  0.96216  1.0000
  H   H236      1.0  0.67609  0.84252  0.07687  1.0000
  C   C237      1.0  0.36389  0.86002  0.93192  1.0000
  H   H237      1.0  0.56001  0.79654  0.10093  1.0000
  H   H238      1.0  0.48133  0.88879  0.98399  1.0000
  Fe  Fe38      1.0  0.67473  0.99387  0.02484  1.0000
  H   H239      1.0  0.30768  0.72951  0.08711  1.0000
  H   H240      1.0  0.39606  0.78790  0.96169  1.0000
  Fe  Fe39      1.0  0.52221  0.64481  0.04013  1.0000
  C   C238      1.0  0.63984  0.83683  0.13709  1.0000
  C   C239      1.0  0.57392  0.81145  0.15110  1.0000
  Fe  Fe40      1.0  0.70012  0.03612  0.17228  1.0000
  C   C240      1.0  0.43504  0.12250  0.92558  1.0000
