data_image0
_chemical_formula_structural       CFeCS2HC3H2CHC3FeH4CSHCHC2FeNCSC3SCH3NHSH5C2HFeHCHSHC5H2NH2C2HC3H2SFeHCFeC2S2HSCH2SNHCHC2HC2H2FeS2FeS2HNCHC6HCH2C2SCH3CH2FeC2H2S2HC2HC2FeH3CHCHCFeSHFeS2FeS2HSHNCSCH3C7H5CHCH5C2H2CFeSHSHCH2CSH4C2H2CHCS2CHCHSNC2HCHNC3HFeHSHFeH4CSHCHC3HCNC8HSH4SHFeSCHC2HSCH2C2NHCFeH2CSHC3H4C3SFeS2CFeSC2SNCSCSHC6H4CHCH3C6HFeH2SHCSHFeC2H2CNH2C4H3CH3CH2FeCSCH2CH2FeS2H3CH2C7HCHCSFeC4NHCHCH2CSHCHSCSH2CHNHNFeH2SHSFeSHCH2CHFeHSC3FeHCFeHSC3HC2SHSHC2SC2SH2C2HFeCFeCH2CHCHNH2CH3C
_chemical_formula_sum              "C192 Fe32 S64 H192 N16"
_cell_length_a       32.3336
_cell_length_b       32.3154
_cell_length_c       24.3151
_cell_angle_alpha    87.1406
_cell_angle_beta     88.3602
_cell_angle_gamma    90.758

_space_group_name_H-M_alt    "P 1"
_space_group_IT_number       1

loop_
  _space_group_symop_operation_xyz
  'x, y, z'

loop_
  _atom_site_type_symbol
  _atom_site_label
  _atom_site_symmetry_multiplicity
  _atom_site_fract_x
  _atom_site_fract_y
  _atom_site_fract_z
  _atom_site_occupancy
  C   C1        1.0  0.42242  0.35257  0.13815  1.0000
  Fe  Fe1       1.0  0.47643  0.24441  0.08210  1.0000
  C   C2        1.0  0.49083  0.06063  0.07568  1.0000
  S   S1        1.0  0.41742  0.20807  0.09724  1.0000
  S   S2        1.0  0.43353  0.25938  0.38962  1.0000
  H   H1        1.0  0.50692  0.18823  0.17039  1.0000
  C   C3        1.0  0.44566  0.26194  0.22370  1.0000
  C   C4        1.0  0.42917  0.25858  0.27776  1.0000
  C   C5        1.0  0.45422  0.26640  0.32226  1.0000
  H   H2        1.0  0.42613  0.25598  0.18979  1.0000
  H   H3        1.0  0.39711  0.24938  0.28528  1.0000
  C   C6        1.0  0.29119  0.35752  0.14337  1.0000
  H   H4        1.0  0.36917  0.28901  0.13339  1.0000
  C   C7        1.0  0.48701  0.27400  0.21392  1.0000
  C   C8        1.0  0.46680  0.16381  0.33641  1.0000
  C   C9        1.0  0.35416  0.31849  0.13790  1.0000
  Fe  Fe2       1.0  0.48022  0.25270  0.45629  1.0000
  H   H5        1.0  0.29289  0.29142  0.13496  1.0000
  H   H6        1.0  0.43543  0.05391  0.49093  1.0000
  H   H7        1.0  0.25772  0.35910  0.14241  1.0000
  H   H8        1.0  0.52266  0.13464  0.17154  1.0000
  C   C10       1.0  0.31090  0.31961  0.13912  1.0000
  S   S3        1.0  0.44652  0.09133  0.08323  1.0000
  H   H9        1.0  0.43873  0.16921  0.36047  1.0000
  C   C11       1.0  0.49547  0.27872  0.31242  1.0000
  H   H10       1.0  0.43640  0.16620  0.25909  1.0000
  C   C12       1.0  0.52914  0.07832  0.05912  1.0000
  C   C13       1.0  0.49992  0.15656  0.18841  1.0000
  Fe  Fe3       1.0  0.45013  0.15839  0.05218  1.0000
  N   N1        1.0  0.50130  0.15665  0.24861  1.0000
  C   C14       1.0  0.46574  0.16221  0.27908  1.0000
  S   S4        1.0  0.51035  0.19312  0.04303  1.0000
  C   C15       1.0  0.46877  0.05122  0.48873  1.0000
  C   C16       1.0  0.49384  0.08709  0.48559  1.0000
  C   C17       1.0  0.50452  0.16000  0.36236  1.0000
  S   S5        1.0  0.50826  0.27936  0.14668  1.0000
  C   C18       1.0  0.51175  0.28277  0.25830  1.0000
  H   H11       1.0  0.51458  0.28602  0.34635  1.0000
  H   H12       1.0  0.46899  0.14646  0.17476  1.0000
  H   H13       1.0  0.47939  0.11672  0.48468  1.0000
  N   N2        1.0  0.37711  0.35425  0.13998  1.0000
  H   H14       1.0  0.53246  0.11133  0.05228  1.0000
  S   S6        1.0  0.47332  0.19556  0.51124  1.0000
  H   H15       1.0  0.43351  0.32619  0.11433  1.0000
  H   H16       1.0  0.43415  0.34886  0.18061  1.0000
  H   H17       1.0  0.50588  0.16167  0.40661  1.0000
  H   H18       1.0  0.26114  0.30421  0.99597  1.0000
  H   H19       1.0  0.47226  0.31002  0.87661  1.0000
  C   C19       1.0  0.44782  0.30700  0.84730  1.0000
  C   C20       1.0  0.50643  0.21943  0.82462  1.0000
  H   H20       1.0  0.41551  0.19661  0.76488  1.0000
  Fe  Fe4       1.0  0.48558  0.21880  0.96361  1.0000
  H   H21       1.0  0.36184  0.29031  0.74357  1.0000
  C   C21       1.0  0.49889  0.12063  0.62115  1.0000
  H   H22       1.0  0.44669  0.19814  0.85654  1.0000
  S   S7        1.0  0.44678  0.22069  0.65687  1.0000
  H   H23       1.0  0.43300  0.30726  0.70945  1.0000
  C   C22       1.0  0.46523  0.20669  0.82012  1.0000
  C   C23       1.0  0.44761  0.20583  0.76814  1.0000
  C   C24       1.0  0.47098  0.21811  0.72056  1.0000
  C   C25       1.0  0.38560  0.29564  0.77310  1.0000
  C   C26       1.0  0.33470  0.28135  0.84930  1.0000
  H   H24       1.0  0.40013  0.29381  0.90938  1.0000
  H   H25       1.0  0.33452  0.25071  0.87233  1.0000
  N   N3        1.0  0.37673  0.29199  0.82857  1.0000
  H   H26       1.0  0.46748  0.12711  0.60566  1.0000
  H   H27       1.0  0.31230  0.27991  0.81565  1.0000
  C   C27       1.0  0.51238  0.23012  0.72493  1.0000
  C   C28       1.0  0.42579  0.30557  0.75345  1.0000
  H   H28       1.0  0.45260  0.08625  0.94866  1.0000
  C   C29       1.0  0.51529  0.10185  0.92189  1.0000
  C   C30       1.0  0.40720  0.29741  0.86552  1.0000
  C   C31       1.0  0.35986  0.34029  0.00406  1.0000
  H   H29       1.0  0.48863  0.31742  0.77614  1.0000
  H   H30       1.0  0.32367  0.30491  0.87795  1.0000
  S   S8        1.0  0.42717  0.18056  0.96972  1.0000
  Fe  Fe5       1.0  0.48729  0.23513  0.58116  1.0000
  H   H31       1.0  0.52123  0.13807  0.59286  1.0000
  C   C32       1.0  0.45704  0.31121  0.79087  1.0000
  Fe  Fe6       1.0  0.40098  0.23452  0.01362  1.0000
  C   C33       1.0  0.28647  0.32606  0.99946  1.0000
  C   C34       1.0  0.32735  0.31185  0.99993  1.0000
  S   S9        1.0  0.45813  0.27441  0.00151  1.0000
  S   S10       1.0  0.52857  0.22348  0.88925  1.0000
  H   H32       1.0  0.39139  0.32997  0.00428  1.0000
  S   S11       1.0  0.33699  0.25844  0.99601  1.0000
  C   C35       1.0  0.48277  0.07446  0.93719  1.0000
  H   H33       1.0  0.51047  0.13509  0.92047  1.0000
  H   H34       1.0  0.50091  0.13283  0.66294  1.0000
  S   S12       1.0  0.48677  0.29348  0.52739  1.0000
  N   N4        1.0  0.50779  0.07621  0.62284  1.0000
  H   H35       1.0  0.44413  0.05761  0.62668  1.0000
  C   C36       1.0  0.53015  0.23051  0.77690  1.0000
  H   H36       1.0  0.53046  0.24016  0.68855  1.0000
  C   C37       1.0  0.47604  0.04768  0.62691  1.0000
  C   C38       1.0  0.27811  0.36838  0.00487  1.0000
  H   H37       1.0  0.27742  0.68507  0.36478  1.0000
  C   C39       1.0  0.15700  0.48779  0.26795  1.0000
  C   C40       1.0  0.31482  0.39368  0.14684  1.0000
  H   H38       1.0  0.22197  0.62338  0.34391  1.0000
  H   H39       1.0  0.36669  0.59948  0.42879  1.0000
  Fe  Fe7       1.0  0.21928  0.58109  0.46036  1.0000
  S   S13       1.0  0.23771  0.54049  0.39131  1.0000
  S   S14       1.0  0.18457  0.64007  0.44742  1.0000
  Fe  Fe8       1.0  0.21736  0.56109  0.08406  1.0000
  S   S15       1.0  0.21281  0.49385  0.11064  1.0000
  S   S16       1.0  0.22953  0.61034  0.14447  1.0000
  H   H40       1.0  0.21938  0.65016  0.24675  1.0000
  N   N5        1.0  0.14466  0.53120  0.26965  1.0000
  C   C41       1.0  0.06427  0.54601  0.49278  1.0000
  H   H41       1.0  0.25667  0.53164  0.19252  1.0000
  C   C42       1.0  0.23960  0.56191  0.32331  1.0000
  C   C43       1.0  0.24988  0.53634  0.28031  1.0000
  C   C44       1.0  0.24832  0.55145  0.22532  1.0000
  C   C45       1.0  0.23647  0.59223  0.21300  1.0000
  C   C46       1.0  0.22816  0.61844  0.25609  1.0000
  C   C47       1.0  0.22953  0.60327  0.31116  1.0000
  H   H42       1.0  0.25855  0.50457  0.28951  1.0000
  C   C48       1.0  0.13686  0.54826  0.31925  1.0000
  H   H43       1.0  0.14572  0.54041  0.18208  1.0000
  H   H44       1.0  0.17318  0.47765  0.30600  1.0000
  C   C49       1.0  0.38385  0.66452  0.42761  1.0000
  C   C50       1.0  0.12035  0.61327  0.27237  1.0000
  S   S17       1.0  0.26664  0.60839  0.51396  1.0000
  C   C51       1.0  0.12786  0.59543  0.22200  1.0000
  H   H45       1.0  0.17904  0.48358  0.23281  1.0000
  H   H46       1.0  0.12931  0.46774  0.26314  1.0000
  H   H47       1.0  0.08795  0.55969  0.11464  1.0000
  C   C52       1.0  0.35762  0.63099  0.41796  1.0000
  H   H48       1.0  0.14120  0.53036  0.35758  1.0000
  H   H49       1.0  0.11921  0.60316  0.36086  1.0000
  Fe  Fe9       1.0  0.22895  0.66587  0.50680  1.0000
  C   C53       1.0  0.12458  0.58953  0.32139  1.0000
  C   C54       1.0  0.13960  0.55396  0.22140  1.0000
  H   H50       1.0  0.11184  0.64559  0.27342  1.0000
  H   H51       1.0  0.12568  0.61378  0.18358  1.0000
  S   S18       1.0  0.09247  0.47008  0.10613  1.0000
  S   S19       1.0  0.15551  0.56241  0.04579  1.0000
  H   H52       1.0  0.37606  0.41990  0.14655  1.0000
  C   C55       1.0  0.03808  0.51231  0.48266  1.0000
  C   C56       1.0  0.05125  0.50523  0.10168  1.0000
  H   H53       1.0  0.29867  0.61258  0.38719  1.0000
  C   C57       1.0  0.31937  0.63834  0.39453  1.0000
  C   C58       1.0  0.05794  0.54791  0.10483  1.0000
  Fe  Fe10      1.0  0.15262  0.49472  0.06721  1.0000
  H   H54       1.0  0.05125  0.48274  0.47349  1.0000
  H   H55       1.0  0.29984  0.42351  0.14826  1.0000
  H   H56       1.0  0.41359  0.65860  0.44577  1.0000
  C   C59       1.0  0.04736  0.58392  0.50645  1.0000
  H   H57       1.0  0.43632  0.38113  0.11753  1.0000
  C   C60       1.0  0.35801  0.39146  0.14526  1.0000
  H   H58       1.0  0.09739  0.54230  0.49119  1.0000
  C   C61       1.0  0.30758  0.67894  0.38163  1.0000
  Fe  Fe11      1.0  0.24210  0.48342  0.02750  1.0000
  S   S20       1.0  0.30275  0.44918  0.02246  1.0000
  H   H59       1.0  0.31313  0.67581  0.55179  1.0000
  Fe  Fe12      1.0  0.22303  0.58976  0.58462  1.0000
  S   S21       1.0  0.25123  0.56259  0.66180  1.0000
  S   S22       1.0  0.18840  0.64938  0.58129  1.0000
  Fe  Fe13      1.0  0.18690  0.54506  0.96742  1.0000
  S   S23       1.0  0.18084  0.47643  0.98630  1.0000
  S   S24       1.0  0.15783  0.57583  0.89273  1.0000
  H   H60       1.0  0.26959  0.53020  0.76986  1.0000
  S   S25       1.0  0.17915  0.55619  0.53188  1.0000
  H   H61       1.0  0.23395  0.53556  0.86100  1.0000
  N   N6        1.0  0.30351  0.67540  0.71248  1.0000
  C   C62       1.0  0.03686  0.48969  0.95476  1.0000
  S   S26       1.0  0.24992  0.55149  0.00300  1.0000
  C   C63       1.0  0.05730  0.52779  0.95894  1.0000
  H   H62       1.0  0.28373  0.62532  0.76724  1.0000
  H   H63       1.0  0.13755  0.60560  0.78390  1.0000
  H   H64       1.0  0.37979  0.69005  0.59504  1.0000
  C   C64       1.0  0.05798  0.60355  0.95960  1.0000
  C   C65       1.0  0.22376  0.56485  0.72512  1.0000
  C   C66       1.0  0.18640  0.58596  0.72914  1.0000
  C   C67       1.0  0.16630  0.58902  0.78080  1.0000
  C   C68       1.0  0.18342  0.57095  0.82853  1.0000
  C   C69       1.0  0.22061  0.54962  0.82440  1.0000
  C   C70       1.0  0.24070  0.54659  0.77278  1.0000
  H   H65       1.0  0.17314  0.60013  0.69263  1.0000
  H   H66       1.0  0.24653  0.37907  0.00574  1.0000
  H   H67       1.0  0.09037  0.52823  0.96554  1.0000
  H   H68       1.0  0.05387  0.46106  0.95921  1.0000
  H   H69       1.0  0.08547  0.53460  0.68007  1.0000
  C   C71       1.0  0.07649  0.54670  0.63861  1.0000
  H   H70       1.0  0.24652  0.65476  0.68056  1.0000
  C   C72       1.0  0.31107  0.63518  0.74074  1.0000
  H   H71       1.0  0.33824  0.63613  0.76758  1.0000
  H   H72       1.0  0.08883  0.52612  0.60692  1.0000
  H   H73       1.0  0.09171  0.57750  0.62985  1.0000
  H   H74       1.0  0.31649  0.61135  0.70995  1.0000
  H   H75       1.0  0.07221  0.61354  0.91885  1.0000
  C   C73       1.0  0.35158  0.38246  0.00883  1.0000
  C   C74       1.0  0.31076  0.39660  0.01011  1.0000
  H   H76       1.0  0.03698  0.62795  0.97416  1.0000
  H   H77       1.0  0.08308  0.60047  0.98971  1.0000
  C   C75       1.0  0.26835  0.68039  0.68303  1.0000
  Fe  Fe14      1.0  0.14765  0.61743  0.52258  1.0000
  S   S27       1.0  0.07855  0.62510  0.52688  1.0000
  H   H78       1.0  0.37694  0.40423  0.01267  1.0000
  S   S28       1.0  0.50978  0.82502  0.18765  1.0000
  H   H79       1.0  0.46605  0.93782  0.30593  1.0000
  C   C76       1.0  0.51928  0.82148  0.35298  1.0000
  H   H80       1.0  0.51845  0.95897  0.08139  1.0000
  H   H81       1.0  0.47852  0.91056  0.21010  1.0000
  C   C77       1.0  0.48658  0.01198  0.49050  1.0000
  S   S29       1.0  0.47137  0.84759  0.48921  1.0000
  H   H82       1.0  0.30810  0.80301  0.49249  1.0000
  H   H83       1.0  0.50010  0.96257  0.19820  1.0000
  H   H84       1.0  0.49830  0.82244  0.38798  1.0000
  H   H85       1.0  0.41727  0.73383  0.46217  1.0000
  C   C78       1.0  0.33458  0.71174  0.39172  1.0000
  C   C79       1.0  0.51456  0.93117  0.36402  1.0000
  H   H86       1.0  0.45782  0.00355  0.09768  1.0000
  H   H87       1.0  0.49416  0.93464  0.39973  1.0000
  C   C80       1.0  0.50361  0.82225  0.29977  1.0000
  H   H88       1.0  0.47059  0.82426  0.29424  1.0000
  C   C81       1.0  0.49887  0.93287  0.31090  1.0000
  S   S30       1.0  0.25778  0.72940  0.49026  1.0000
  S   S31       1.0  0.53419  0.87718  0.04374  1.0000
  C   C82       1.0  0.50715  0.92998  0.21076  1.0000
  H   H89       1.0  0.38472  0.76862  0.42476  1.0000
  C   C83       1.0  0.52165  0.99217  0.07538  1.0000
  H   H90       1.0  0.32479  0.74321  0.38228  1.0000
  S   S32       1.0  0.45407  0.96774  0.49947  1.0000
  N   N7        1.0  0.52439  0.92772  0.26594  1.0000
  C   C84       1.0  0.40104  0.73867  0.42267  1.0000
  C   C85       1.0  0.48735  0.01749  0.08469  1.0000
  H   H91       1.0  0.52889  0.91763  0.17951  1.0000
  C   C86       1.0  0.53046  0.82114  0.25370  1.0000
  H   H92       1.0  0.42438  0.74130  0.38818  1.0000
  N   N8        1.0  0.37214  0.70426  0.41458  1.0000
  C   C87       1.0  0.52968  0.00896  0.48639  1.0000
  C   C88       1.0  0.32396  0.77822  0.51439  1.0000
  C   C89       1.0  0.38186  0.75467  0.56841  1.0000
  H   H93       1.0  0.51688  0.83044  0.72199  1.0000
  Fe  Fe15      1.0  0.46771  0.81897  0.57528  1.0000
  H   H94       1.0  0.51776  0.95633  0.96478  1.0000
  S   S33       1.0  0.47091  0.88008  0.61559  1.0000
  H   H95       1.0  0.50270  0.79728  0.81499  1.0000
  Fe  Fe16      1.0  0.48231  0.90764  0.52965  1.0000
  H   H96       1.0  0.23296  0.72200  0.63076  1.0000
  H   H97       1.0  0.34764  0.77038  0.68760  1.0000
  H   H98       1.0  0.28341  0.78021  0.63487  1.0000
  H   H99       1.0  0.37508  0.81741  0.53615  1.0000
  C   C90       1.0  0.33175  0.70722  0.71439  1.0000
  S   S34       1.0  0.42703  0.76439  0.60422  1.0000
  H   H100      1.0  0.46448  0.01073  0.95241  1.0000
  C   C91       1.0  0.32669  0.70650  0.54751  1.0000
  H   H101      1.0  0.52287  0.95881  0.89027  1.0000
  C   C92       1.0  0.32463  0.74558  0.68732  1.0000
  C   C93       1.0  0.52530  0.82226  0.80961  1.0000
  C   C94       1.0  0.28865  0.75108  0.65764  1.0000
  H   H102      1.0  0.45903  0.98260  0.63090  1.0000
  C   C95       1.0  0.36445  0.71465  0.57208  1.0000
  N   N9        1.0  0.52817  0.01675  0.92741  1.0000
  C   C96       1.0  0.36188  0.78639  0.53889  1.0000
  C   C97       1.0  0.30606  0.73838  0.51923  1.0000
  C   C98       1.0  0.48976  0.03175  0.93955  1.0000
  C   C99       1.0  0.26035  0.71830  0.65522  1.0000
  C   C100      1.0  0.53433  0.97180  0.92854  1.0000
  C   C101      1.0  0.48422  0.00521  0.62977  1.0000
  C   C102      1.0  0.53328  0.84101  0.75696  1.0000
  C   C103      1.0  0.52512  0.99205  0.62922  1.0000
  H   H103      1.0  0.53190  0.95922  0.63094  1.0000
  S   S35       1.0  0.53598  0.80700  0.58012  1.0000
  H   H104      1.0  0.36027  0.70305  0.73627  1.0000
  H   H105      1.0  0.54361  0.29268  0.25084  1.0000
  H   H106      1.0  0.57009  0.15204  0.35137  1.0000
  H   H107      1.0  0.65878  0.30436  0.41471  1.0000
  S   S36       1.0  0.59173  0.34319  0.51395  1.0000
  H   H108      1.0  0.59273  0.06707  0.03617  1.0000
  Fe  Fe17      1.0  0.54173  0.19057  0.50077  1.0000
  S   S37       1.0  0.54834  0.24549  0.44063  1.0000
  C   C104      1.0  0.64755  0.32974  0.38667  1.0000
  H   H109      1.0  0.72914  0.33507  0.39823  1.0000
  C   C105      1.0  0.54068  0.15476  0.33107  1.0000
  C   C106      1.0  0.53699  0.08414  0.48386  1.0000
  H   H110      1.0  0.64912  0.31993  0.34357  1.0000
  S   S38       1.0  0.56961  0.12844  0.48430  1.0000
  C   C107      1.0  0.56339  0.05311  0.05001  1.0000
  H   H111      1.0  0.56686  0.15023  0.24945  1.0000
  H   H112      1.0  0.61457  0.33441  0.39890  1.0000
  C   C108      1.0  0.71437  0.36502  0.39575  1.0000
  C   C109      1.0  0.55478  0.04488  0.48310  1.0000
  N   N10       1.0  0.67236  0.36764  0.39150  1.0000
  H   H113      1.0  0.58811  0.04218  0.48088  1.0000
  C   C110      1.0  0.53855  0.15352  0.27374  1.0000
  Fe  Fe18      1.0  0.55517  0.28290  0.51555  1.0000
  H   H114      1.0  0.57318  0.08619  0.61797  1.0000
  H   H115      1.0  0.56203  0.24048  0.78021  1.0000
  C   C111      1.0  0.54803  0.06356  0.62220  1.0000
  S   S39       1.0  0.55610  0.22696  0.57473  1.0000
  H   H116      1.0  0.57988  0.10751  0.89847  1.0000
  C   C112      1.0  0.71379  0.31994  0.53468  1.0000
  C   C113      1.0  0.67079  0.31391  0.53055  1.0000
  C   C114      1.0  0.55432  0.08631  0.90949  1.0000
  H   H117      1.0  0.80056  0.36952  0.65524  1.0000
  H   H118      1.0  0.65778  0.28291  0.53009  1.0000
  H   H119      1.0  0.82575  0.36535  0.75132  1.0000
  H   H120      1.0  0.73384  0.29341  0.53756  1.0000
  C   C115      1.0  0.64493  0.34817  0.52578  1.0000
  C   C116      1.0  0.56027  0.04339  0.91243  1.0000
  C   C117      1.0  0.73096  0.36013  0.53401  1.0000
  S   S40       1.0  0.78513  0.36701  0.53527  1.0000
  Fe  Fe19      1.0  0.81328  0.51700  0.06991  1.0000
  S   S41       1.0  0.82478  0.58444  0.08212  1.0000
  S   S42       1.0  0.79428  0.47129  0.13908  1.0000
  C   C118      1.0  0.97858  0.51814  0.08534  1.0000
  Fe  Fe20      1.0  0.81449  0.50980  0.44665  1.0000
  S   S43       1.0  0.78794  0.54576  0.37459  1.0000
  C   C119      1.0  0.76380  0.69935  0.04084  1.0000
  C   C120      1.0  0.01112  0.49037  0.09380  1.0000
  S   S44       1.0  0.96281  0.47279  0.47808  1.0000
  N   N11       1.0  0.67657  0.69590  0.16215  1.0000
  C   C121      1.0  0.65374  0.40546  0.38934  1.0000
  S   S45       1.0  0.94685  0.59699  0.06832  1.0000
  C   C122      1.0  0.73885  0.40086  0.39853  1.0000
  S   S46       1.0  0.84809  0.44990  0.44111  1.0000
  H   H121      1.0  0.86159  0.56799  0.20799  1.0000
  C   C123      1.0  0.79156  0.49179  0.20452  1.0000
  C   C124      1.0  0.80178  0.46692  0.25086  1.0000
  C   C125      1.0  0.80090  0.48318  0.30332  1.0000
  C   C126      1.0  0.78909  0.52417  0.30969  1.0000
  C   C127      1.0  0.77829  0.54885  0.26343  1.0000
  C   C128      1.0  0.77970  0.53276  0.21088  1.0000
  H   H122      1.0  0.81084  0.43516  0.24599  1.0000
  H   H123      1.0  0.80915  0.46388  0.33860  1.0000
  H   H124      1.0  0.76885  0.58049  0.26831  1.0000
  H   H125      1.0  0.77095  0.55173  0.17539  1.0000
  C   C129      1.0  0.97830  0.55487  0.49738  1.0000
  H   H126      1.0  0.87520  0.55980  0.30254  1.0000
  C   C130      1.0  0.70949  0.62559  0.11707  1.0000
  H   H127      1.0  0.79192  0.68329  0.05108  1.0000
  H   H128      1.0  0.93630  0.48302  0.18915  1.0000
  H   H129      1.0  0.87361  0.52623  0.16484  1.0000
  C   C131      1.0  0.72981  0.64472  0.15906  1.0000
  C   C132      1.0  0.99496  0.51646  0.48590  1.0000
  C   C133      1.0  0.89559  0.53428  0.29427  1.0000
  C   C134      1.0  0.91302  0.51230  0.33870  1.0000
  C   C135      1.0  0.94730  0.46849  0.27467  1.0000
  C   C136      1.0  0.93893  0.47915  0.32874  1.0000
  H   H130      1.0  0.90652  0.52089  0.38063  1.0000
  Fe  Fe21      1.0  0.89423  0.47906  0.49524  1.0000
  H   H131      1.0  0.95255  0.46182  0.36293  1.0000
  H   H132      1.0  0.72303  0.59905  0.09796  1.0000
  S   S47       1.0  0.86295  0.54042  0.49522  1.0000
  H   H133      1.0  0.00542  0.45736  0.09244  1.0000
  C   C137      1.0  0.92950  0.49124  0.23118  1.0000
  S   S48       1.0  0.87527  0.50616  0.03103  1.0000
  H   H134      1.0  0.96755  0.44287  0.26645  1.0000
  Fe  Fe22      1.0  0.88561  0.57397  0.03791  1.0000
  C   C138      1.0  0.88682  0.54739  0.19474  1.0000
  C   C139      1.0  0.98583  0.56096  0.08470  1.0000
  H   H135      1.0  0.75902  0.63280  0.17335  1.0000
  H   H136      1.0  0.91156  0.56688  0.17349  1.0000
  C   C140      1.0  0.67233  0.64164  0.09831  1.0000
  N   N12       1.0  0.90384  0.52347  0.24135  1.0000
  H   H137      1.0  0.94822  0.50611  0.07869  1.0000
  H   H138      1.0  0.65704  0.62761  0.06456  1.0000
  C   C141      1.0  0.02545  0.57566  0.09603  1.0000
  C   C142      1.0  0.72013  0.43954  0.39650  1.0000
  C   C143      1.0  0.71272  0.67999  0.18141  1.0000
  C   C144      1.0  0.00438  0.58845  0.50760  1.0000
  H   H139      1.0  0.73867  0.46762  0.39895  1.0000
  H   H140      1.0  0.77201  0.39850  0.40331  1.0000
  H   H141      1.0  0.66251  0.47189  0.39069  1.0000
  C   C145      1.0  0.65610  0.67694  0.12158  1.0000
  H   H142      1.0  0.03122  0.60867  0.09720  1.0000
  H   H143      1.0  0.94537  0.55871  0.49975  1.0000
  H   H144      1.0  0.62039  0.40751  0.38653  1.0000
  C   C146      1.0  0.67731  0.44194  0.39189  1.0000
  H   H145      1.0  0.62763  0.68972  0.10596  1.0000
  H   H146      1.0  0.72893  0.69502  0.21357  1.0000
  Fe  Fe23      1.0  0.84715  0.52317  0.95036  1.0000
  C   C147      1.0  0.97302  0.52605  0.94077  1.0000
  S   S49       1.0  0.86842  0.48584  0.87915  1.0000
  C   C148      1.0  0.96510  0.51634  0.62566  1.0000
  H   H147      1.0  0.95397  0.61802  0.65120  1.0000
  H   H148      1.0  0.97720  0.59220  0.94352  1.0000
  C   C149      1.0  0.70483  0.39416  0.53070  1.0000
  H   H149      1.0  0.91189  0.55553  0.63324  1.0000
  H   H150      1.0  0.89146  0.46114  0.77128  1.0000
  Fe  Fe24      1.0  0.82841  0.51355  0.57005  1.0000
  S   S50       1.0  0.86284  0.45384  0.57367  1.0000
  S   S51       1.0  0.81561  0.55229  0.64290  1.0000
  H   H151      1.0  0.87084  0.48634  0.67836  1.0000
  H   H152      1.0  0.79852  0.58130  0.75037  1.0000
  H   H153      1.0  0.80602  0.41988  0.81570  1.0000
  C   C150      1.0  0.77008  0.45369  0.75540  1.0000
  H   H154      1.0  0.76209  0.47755  0.78358  1.0000
  H   H155      1.0  0.68073  0.69238  0.95902  1.0000
  C   C151      1.0  0.99442  0.48891  0.94562  1.0000
  C   C152      1.0  0.85625  0.50660  0.81360  1.0000
  C   C153      1.0  0.83035  0.54071  0.80757  1.0000
  C   C154      1.0  0.81889  0.55510  0.75479  1.0000
  C   C155      1.0  0.83301  0.53528  0.70797  1.0000
  C   C156      1.0  0.85957  0.50167  0.71401  1.0000
  C   C157      1.0  0.87132  0.48749  0.76671  1.0000
  H   H156      1.0  0.81867  0.55567  0.84360  1.0000
  C   C158      1.0  0.73752  0.68354  0.00205  1.0000
  H   H157      1.0  0.69778  0.48141  0.69010  1.0000
  C   C159      1.0  0.96901  0.58876  0.64483  1.0000
  S   S52       1.0  0.86162  0.59098  0.95386  1.0000
  Fe  Fe25      1.0  0.79929  0.59401  0.99737  1.0000
  C   C160      1.0  0.79223  0.39304  0.68383  1.0000
  C   C161      1.0  0.76746  0.42616  0.66677  1.0000
  C   C162      1.0  0.66204  0.38819  0.52660  1.0000
  C   C163      1.0  0.99433  0.56355  0.94598  1.0000
  N   N13       1.0  0.75729  0.45630  0.70217  1.0000
  H   H158      1.0  0.73737  0.51884  0.70637  1.0000
  C   C164      1.0  0.94538  0.55364  0.63477  1.0000
  H   H159      1.0  0.03042  0.61375  0.65206  1.0000
  C   C165      1.0  0.73086  0.49048  0.68373  1.0000
  H   H160      1.0  0.94716  0.48908  0.61642  1.0000
  H   H161      1.0  0.73712  0.49926  0.63945  1.0000
  C   C166      1.0  0.80617  0.39063  0.73769  1.0000
  S   S53       1.0  0.74748  0.63641  0.97127  1.0000
  H   H162      1.0  0.94003  0.52575  0.93361  1.0000
  C   C167      1.0  0.00833  0.51474  0.62671  1.0000
  H   H163      1.0  0.71742  0.42516  0.53026  1.0000
  S   S54       1.0  0.78335  0.52661  0.98828  1.0000
  C   C168      1.0  0.79486  0.42098  0.77389  1.0000
  S   S55       1.0  0.77604  0.48939  0.52159  1.0000
  H   H164      1.0  0.97797  0.45966  0.94254  1.0000
  H   H165      1.0  0.75665  0.42762  0.62491  1.0000
  C   C169      1.0  0.01220  0.58608  0.64549  1.0000
  H   H166      1.0  0.64212  0.41479  0.52299  1.0000
  N   N14       1.0  0.03129  0.54941  0.63621  1.0000
  H   H167      1.0  0.02341  0.48581  0.61851  1.0000
  N   N15       1.0  0.03585  0.56400  0.95553  1.0000
  Fe  Fe26      1.0  0.81292  0.43122  0.51970  1.0000
  H   H168      1.0  0.99112  0.61779  0.51776  1.0000
  H   H169      1.0  0.62177  0.81514  0.32009  1.0000
  S   S56       1.0  0.61349  0.87457  0.12632  1.0000
  H   H170      1.0  0.59400  0.81681  0.22571  1.0000
  S   S57       1.0  0.58254  0.82145  0.42670  1.0000
  Fe  Fe27      1.0  0.64161  0.82923  0.06934  1.0000
  S   S58       1.0  0.60214  0.97937  0.03937  1.0000
  H   H171      1.0  0.56911  0.92155  0.41176  1.0000
  C   C170      1.0  0.56190  0.81935  0.36057  1.0000
  H   H172      1.0  0.64039  0.72323  0.22465  1.0000
  H   H173      1.0  0.58607  0.91709  0.23677  1.0000
  C   C171      1.0  0.58251  0.91957  0.32476  1.0000
  H   H174      1.0  0.68379  0.75473  0.19705  1.0000
  Fe  Fe28      1.0  0.59523  0.90984  0.04930  1.0000
  H   H175      1.0  0.77378  0.74813  0.09677  1.0000
  S   S59       1.0  0.58408  0.79007  0.06582  1.0000
  C   C172      1.0  0.56583  0.92158  0.27226  1.0000
  C   C173      1.0  0.58875  0.81702  0.31447  1.0000
  C   C174      1.0  0.57310  0.81815  0.26105  1.0000
  Fe  Fe29      1.0  0.55491  0.83838  0.11673  1.0000
  H   H176      1.0  0.61504  0.91306  0.32993  1.0000
  C   C175      1.0  0.75347  0.73598  0.06666  1.0000
  Fe  Fe30      1.0  0.53987  0.83972  0.49633  1.0000
  H   H177      1.0  0.63889  0.74980  0.15745  1.0000
  S   S60       1.0  0.70316  0.80096  0.08929  1.0000
  C   C176      1.0  0.71680  0.75670  0.05400  1.0000
  C   C177      1.0  0.65892  0.73251  0.18678  1.0000
  C   C178      1.0  0.55663  0.92424  0.37083  1.0000
  H   H178      1.0  0.54389  0.97917  0.48555  1.0000
  C   C179      1.0  0.55962  0.00996  0.05719  1.0000
  C   C180      1.0  0.58477  0.88558  0.79500  1.0000
  S   S61       1.0  0.62927  0.86810  0.99259  1.0000
  H   H179      1.0  0.59357  0.87694  0.88241  1.0000
  S   S62       1.0  0.57846  0.89173  0.68295  1.0000
  H   H180      1.0  0.60834  0.90961  0.78923  1.0000
  C   C181      1.0  0.60849  0.77688  0.72153  1.0000
  C   C182      1.0  0.64014  0.80502  0.73149  1.0000
  S   S63       1.0  0.54102  0.80641  0.91831  1.0000
  C   C183      1.0  0.69074  0.74104  0.01493  1.0000
  C   C184      1.0  0.57646  0.86711  0.84776  1.0000
  S   S64       1.0  0.55089  0.90154  0.53127  1.0000
  H   H181      1.0  0.65260  0.82555  0.69817  1.0000
  H   H182      1.0  0.59090  0.03157  0.90377  1.0000
  C   C185      1.0  0.59152  0.75175  0.76501  1.0000
  C   C186      1.0  0.56374  0.87202  0.74940  1.0000
  H   H183      1.0  0.59201  0.73681  0.85208  1.0000
  Fe  Fe31      1.0  0.53933  0.87007  0.61437  1.0000
  C   C187      1.0  0.54740  0.83470  0.85488  1.0000
  Fe  Fe32      1.0  0.56920  0.83253  0.99314  1.0000
  C   C188      1.0  0.65230  0.78681  0.88346  1.0000
  H   H184      1.0  0.66255  0.81901  0.89061  1.0000
  H   H185      1.0  0.59642  0.77540  0.68045  1.0000
  C   C189      1.0  0.60624  0.75550  0.81815  1.0000
  H   H186      1.0  0.67852  0.83015  0.79255  1.0000
  C   C190      1.0  0.65430  0.80778  0.78505  1.0000
  H   H187      1.0  0.67866  0.76556  0.88993  1.0000
  N   N16       1.0  0.63692  0.78361  0.82766  1.0000
  H   H188      1.0  0.56624  0.73045  0.75793  1.0000
  H   H189      1.0  0.58917  0.01121  0.62402  1.0000
  C   C191      1.0  0.55730  0.02131  0.62540  1.0000
  H   H190      1.0  0.62752  0.77880  0.91504  1.0000
  H   H191      1.0  0.66234  0.75672  0.00532  1.0000
  H   H192      1.0  0.56754  0.96393  0.93251  1.0000
  C   C192      1.0  0.70121  0.70469  0.98881  1.0000
