data_image0
_chemical_formula_structural       HCH4SCH2C3NSH2CSCHCHC2HFeHFeHSC3HSC3H2CNH2CHCH2CHC2S2FeHFeHSHSH2S2C7H4CH2SCFeH2NH2C2HC2FeHCHCSCHCHSFeS2FeSHFeSFeSHC2H2C6H7C3HCHNCSNH3C2HC2HSCHSC7H3SFeCSHCH2NH2CFe2SHS2HFeCHC4HC2HCH2CH2SH2NC2H2CHCH2SFeSCHC5H4C2HNCH2CSHFeHC2HCH2CHCFeSFeS2FeSFeS3H2CH2C7H2CHNC2H3C3H2CHCSCHCH2NHSCH2C3H2CS2FeSFeSFeSFeHSCHC2SHC7H4CHC2NHC2H4NCH2C3SHCH3C2H3CHC3
_chemical_formula_sum              "H144 C144 S48 N12 Fe24"
_cell_length_a       30.0865
_cell_length_b       30.4337
_cell_length_c       32.1295
_cell_angle_alpha    90.3676
_cell_angle_beta     89.5585
_cell_angle_gamma    120.43

_space_group_name_H-M_alt    "P 1"
_space_group_IT_number       1

loop_
  _space_group_symop_operation_xyz
  'x, y, z'

loop_
  _atom_site_type_symbol
  _atom_site_label
  _atom_site_symmetry_multiplicity
  _atom_site_fract_x
  _atom_site_fract_y
  _atom_site_fract_z
  _atom_site_occupancy
  H   H1        1.0  0.08328  0.31496  0.62739  1.0000
  C   C1        1.0  0.42712  0.08379  0.65363  1.0000
  H   H2        1.0  0.40301  0.02082  0.58908  1.0000
  H   H3        1.0  0.39542  0.08263  0.63507  1.0000
  H   H4        1.0  0.31428  0.04004  0.41933  1.0000
  H   H5        1.0  0.42563  0.01980  0.41109  1.0000
  S   S1        1.0  0.45716  0.23402  0.50943  1.0000
  C   C2        1.0  0.40178  0.00911  0.43881  1.0000
  H   H6        1.0  0.25440  0.00698  0.47964  1.0000
  H   H7        1.0  0.49663  0.35339  0.49917  1.0000
  C   C3        1.0  0.44422  0.04370  0.59419  1.0000
  C   C4        1.0  0.28314  0.00062  0.41969  1.0000
  C   C5        1.0  0.13909  0.29576  0.64887  1.0000
  N   N1        1.0  0.46305  0.07789  0.62636  1.0000
  S   S2        1.0  0.43124  0.19776  0.60669  1.0000
  H   H8        1.0  0.15268  0.29387  0.61790  1.0000
  H   H9        1.0  0.49136  0.40886  0.50814  1.0000
  C   C6        1.0  0.36795  0.30186  0.64828  1.0000
  S   S3        1.0  0.42153  0.32299  0.57270  1.0000
  C   C7        1.0  0.34566  0.38044  0.63882  1.0000
  H   H10       1.0  0.37625  0.27146  0.65223  1.0000
  C   C8        1.0  0.47772  0.03916  0.56642  1.0000
  H   H11       1.0  0.44651  0.12130  0.66993  1.0000
  C   C9        1.0  0.40798  0.04717  0.46743  1.0000
  C   C10       1.0  0.37443  0.37179  0.60827  1.0000
  H   H12       1.0  0.33718  0.41071  0.63477  1.0000
  Fe  Fe1       1.0  0.44094  0.16455  0.54661  1.0000
  H   H13       1.0  0.43633  0.08672  0.46160  1.0000
  Fe  Fe2       1.0  0.45389  0.26908  0.57092  1.0000
  H   H14       1.0  0.38775  0.39563  0.58088  1.0000
  S   S4        1.0  0.37839  0.08076  0.53751  1.0000
  C   C11       1.0  0.38575  0.33247  0.61272  1.0000
  C   C12       1.0  0.37615  0.03414  0.50257  1.0000
  C   C13       1.0  0.10025  0.30762  0.65420  1.0000
  H   H15       1.0  0.46244  0.01358  0.53986  1.0000
  S   S5        1.0  0.10032  0.41221  0.75647  1.0000
  C   C14       1.0  0.02676  0.32238  0.85799  1.0000
  C   C15       1.0  0.05314  0.37158  0.79368  1.0000
  C   C16       1.0  0.06569  0.35394  0.82929  1.0000
  H   H16       1.0  0.10542  0.36500  0.83497  1.0000
  H   H17       1.0  0.03703  0.30933  0.88556  1.0000
  C   C17       1.0  0.10827  0.30418  0.72862  1.0000
  N   N2        1.0  0.14594  0.29205  0.72313  1.0000
  H   H18       1.0  0.09702  0.30917  0.75966  1.0000
  H   H19       1.0  0.05571  0.32272  0.69898  1.0000
  C   C18       1.0  0.08464  0.31181  0.69431  1.0000
  H   H20       1.0  0.14271  0.26404  0.78439  1.0000
  C   C19       1.0  0.16175  0.28817  0.68389  1.0000
  H   H21       1.0  0.02307  0.43103  0.85625  1.0000
  H   H22       1.0  0.41055  0.05298  0.67719  1.0000
  C   C20       1.0  0.33877  0.31021  0.67866  1.0000
  H   H23       1.0  0.19989  0.32430  0.77206  1.0000
  C   C21       1.0  0.32745  0.34953  0.67419  1.0000
  C   C22       1.0  0.17130  0.28614  0.75968  1.0000
  S   S6        1.0  0.24738  0.43882  0.78016  1.0000
  S   S7        1.0  0.20788  0.42349  0.68296  1.0000
  Fe  Fe3       1.0  0.27159  0.42214  0.71786  1.0000
  H   H24       1.0  0.32499  0.28605  0.70586  1.0000
  Fe  Fe4       1.0  0.18717  0.44596  0.74407  1.0000
  H   H25       1.0  0.19253  0.26604  0.75174  1.0000
  S   S8        1.0  0.28911  0.35731  0.71290  1.0000
  H   H26       1.0  0.19290  0.28034  0.67945  1.0000
  S   S9        1.0  0.46990  0.68455  0.09295  1.0000
  H   H27       1.0  0.24979  0.77707  0.20804  1.0000
  H   H28       1.0  0.17386  0.74379  0.25578  1.0000
  S   S10       1.0  0.32467  0.69549  0.31809  1.0000
  S   S11       1.0  0.47391  0.80140  0.16183  1.0000
  C   C23       1.0  0.19393  0.72286  0.25113  1.0000
  C   C24       1.0  0.36667  0.72591  0.27509  1.0000
  C   C25       1.0  0.38472  0.77693  0.26518  1.0000
  C   C26       1.0  0.41730  0.79925  0.23036  1.0000
  C   C27       1.0  0.43192  0.77086  0.20484  1.0000
  C   C28       1.0  0.41324  0.71962  0.21440  1.0000
  C   C29       1.0  0.38096  0.69740  0.24941  1.0000
  H   H29       1.0  0.37403  0.79934  0.28458  1.0000
  H   H30       1.0  0.43159  0.83894  0.22336  1.0000
  H   H31       1.0  0.42417  0.69731  0.19514  1.0000
  H   H32       1.0  0.36723  0.65790  0.25675  1.0000
  C   C30       1.0  0.17811  0.67759  0.27289  1.0000
  H   H33       1.0  0.15119  0.59182  0.30890  1.0000
  H   H34       1.0  0.26574  0.64865  0.23802  1.0000
  S   S12       1.0  0.12603  0.73723  0.33753  1.0000
  C   C31       1.0  0.18811  0.60490  0.29189  1.0000
  Fe  Fe5       1.0  0.50047  0.76601  0.11158  1.0000
  H   H35       1.0  0.18334  0.57354  0.27109  1.0000
  H   H36       1.0  0.29588  0.72883  0.19938  1.0000
  N   N3        1.0  0.20348  0.65120  0.26773  1.0000
  H   H37       1.0  0.14584  0.66415  0.29431  1.0000
  H   H38       1.0  0.03974  0.72883  0.29231  1.0000
  C   C32       1.0  0.26196  0.71423  0.21924  1.0000
  C   C33       1.0  0.24466  0.66875  0.24111  1.0000
  H   H39       1.0  0.21835  0.61255  0.31524  1.0000
  C   C34       1.0  0.02889  0.69091  0.30263  1.0000
  C   C35       1.0  0.23637  0.74141  0.22436  1.0000
  Fe  Fe6       1.0  0.47356  0.71053  0.02684  1.0000
  H   H40       1.0  0.36982  0.50748  0.03502  1.0000
  C   C36       1.0  0.06403  0.68362  0.32606  1.0000
  H   H41       1.0  0.47812  0.58867  0.05179  1.0000
  C   C37       1.0  0.38288  0.54579  0.02195  1.0000
  S   S13       1.0  0.49834  0.79114  0.04611  1.0000
  C   C38       1.0  0.04922  0.63424  0.33911  1.0000
  H   H42       1.0  0.38917  0.57303  0.04765  1.0000
  C   C39       1.0  0.47661  0.58425  0.01821  1.0000
  H   H43       1.0  0.21715  0.89263  0.32627  1.0000
  S   S14       1.0  0.28298  0.54244  0.60852  1.0000
  Fe  Fe7       1.0  0.30055  0.82569  0.40479  1.0000
  S   S15       1.0  0.32468  0.76932  0.42296  1.0000
  S   S16       1.0  0.35425  0.91237  0.40566  1.0000
  Fe  Fe8       1.0  0.19454  0.74111  0.37191  1.0000
  S   S17       1.0  0.21085  0.67892  0.38811  1.0000
  H   H44       1.0  0.18529  0.91549  0.48126  1.0000
  Fe  Fe9       1.0  0.24380  0.72196  0.44817  1.0000
  S   S18       1.0  0.22163  0.68789  0.51357  1.0000
  Fe  Fe10      1.0  0.29065  0.73081  0.36156  1.0000
  S   S19       1.0  0.22186  0.78131  0.43365  1.0000
  H   H45       1.0  0.30045  0.69974  0.64608  1.0000
  C   C40       1.0  0.36420  0.95759  0.44518  1.0000
  C   C41       1.0  0.33371  0.94433  0.48118  1.0000
  H   H46       1.0  0.35338  0.67404  0.60535  1.0000
  H   H47       1.0  0.30464  0.90490  0.48650  1.0000
  C   C42       1.0  0.23746  0.64571  0.53865  1.0000
  C   C43       1.0  0.21719  0.62728  0.57860  1.0000
  C   C44       1.0  0.22949  0.59453  0.60007  1.0000
  C   C45       1.0  0.26250  0.58003  0.58181  1.0000
  C   C46       1.0  0.28268  0.59836  0.54187  1.0000
  C   C47       1.0  0.27024  0.63095  0.52036  1.0000
  H   H48       1.0  0.19166  0.63834  0.59295  1.0000
  H   H49       1.0  0.21372  0.58081  0.63078  1.0000
  H   H50       1.0  0.30828  0.58743  0.52745  1.0000
  H   H51       1.0  0.28612  0.64479  0.48969  1.0000
  H   H52       1.0  0.44736  0.65878  0.63675  1.0000
  H   H53       1.0  0.31471  0.97187  0.53669  1.0000
  H   H54       1.0  0.17673  0.85875  0.42248  1.0000
  C   C48       1.0  0.20664  0.89867  0.42144  1.0000
  C   C49       1.0  0.33956  0.98245  0.50958  1.0000
  C   C50       1.0  0.40563  0.63071  0.63369  1.0000
  H   H55       1.0  0.30521  0.98191  0.36151  1.0000
  C   C51       1.0  0.35120  0.66940  0.63890  1.0000
  H   H56       1.0  0.39759  0.59267  0.64439  1.0000
  N   N4        1.0  0.24002  0.91731  0.38837  1.0000
  C   C52       1.0  0.32123  0.68419  0.66187  1.0000
  S   S20       1.0  0.27214  0.78997  0.34152  1.0000
  N   N5        1.0  0.37530  0.64720  0.65815  1.0000
  H   H57       1.0  0.27263  0.88962  0.34396  1.0000
  H   H58       1.0  0.39475  0.62589  0.60023  1.0000
  H   H59       1.0  0.07541  0.62788  0.35749  1.0000
  C   C53       1.0  0.23439  0.88404  0.35316  1.0000
  C   C54       1.0  0.27787  0.96755  0.38716  1.0000
  H   H60       1.0  0.20921  0.84309  0.36108  1.0000
  C   C55       1.0  0.21106  0.93062  0.45466  1.0000
  C   C56       1.0  0.24951  0.98195  0.45364  1.0000
  H   H61       1.0  0.34019  0.65046  0.75792  1.0000
  S   S21       1.0  0.23909  0.53069  0.73202  1.0000
  C   C57       1.0  0.31706  0.67727  0.70491  1.0000
  H   H62       1.0  0.39182  0.62414  0.71582  1.0000
  S   S22       1.0  0.36906  0.58467  0.80027  1.0000
  C   C58       1.0  0.42855  0.55721  0.95557  1.0000
  C   C59       1.0  0.39262  0.63951  0.93685  1.0000
  C   C60       1.0  0.34339  0.60221  0.92293  1.0000
  C   C61       1.0  0.33544  0.58447  0.88143  1.0000
  C   C62       1.0  0.37668  0.60430  0.85324  1.0000
  C   C63       1.0  0.42591  0.64161  0.86718  1.0000
  C   C64       1.0  0.43395  0.65901  0.90876  1.0000
  H   H63       1.0  0.31113  0.58692  0.94440  1.0000
  H   H64       1.0  0.29735  0.55593  0.87117  1.0000
  H   H65       1.0  0.45807  0.65728  0.84561  1.0000
  S   S23       1.0  0.32802  0.50397  0.70473  1.0000
  Fe  Fe11      1.0  0.30051  0.52181  0.76444  1.0000
  C   C65       1.0  0.34321  0.65623  0.72445  1.0000
  S   S24       1.0  0.40052  0.65848  0.98994  1.0000
  H   H66       1.0  0.47202  0.68761  0.91903  1.0000
  C   C66       1.0  0.37232  0.64129  0.70044  1.0000
  H   H67       1.0  0.29327  0.68775  0.72307  1.0000
  H   H68       1.0  0.39202  0.54057  0.93935  1.0000
  N   N6        1.0  0.43050  0.56339  0.99788  1.0000
  H   H69       1.0  0.35184  0.54441  0.00238  1.0000
  H   H70       1.0  0.47209  0.57061  0.89863  1.0000
  C   C67       1.0  0.47381  0.57404  0.93232  1.0000
  Fe  Fe12      1.0  0.26303  0.50712  0.67345  1.0000
  Fe  Fe13      1.0  0.75844  0.45860  0.19273  1.0000
  S   S25       1.0  0.75437  0.39064  0.15759  1.0000
  H   H71       1.0  0.85354  0.41806  0.19675  1.0000
  S   S26       1.0  0.69527  0.47657  0.20581  1.0000
  S   S27       1.0  0.76948  0.45153  0.26106  1.0000
  H   H72       1.0  0.88351  0.44573  0.30831  1.0000
  Fe  Fe14      1.0  0.71191  0.47525  0.27404  1.0000
  C   C68       1.0  0.87292  0.42361  0.22732  1.0000
  H   H73       1.0  0.89346  0.46537  0.23364  1.0000
  C   C69       1.0  0.76228  0.34603  0.32279  1.0000
  C   C70       1.0  0.76002  0.37980  0.10364  1.0000
  C   C71       1.0  0.75673  0.33369  0.09140  1.0000
  C   C72       1.0  0.76062  0.32305  0.04908  1.0000
  H   H74       1.0  0.68252  0.02114  0.07109  1.0000
  C   C73       1.0  0.77146  0.40472  0.03062  1.0000
  C   C74       1.0  0.76765  0.41540  0.07294  1.0000
  H   H75       1.0  0.75071  0.30577  0.11478  1.0000
  C   C75       1.0  0.75174  0.32815  0.28185  1.0000
  H   H76       1.0  0.58743  0.46799  0.26035  1.0000
  H   H77       1.0  0.77023  0.45099  0.08173  1.0000
  C   C76       1.0  0.78916  0.35327  0.25092  1.0000
  H   H78       1.0  0.71431  0.29603  0.27380  1.0000
  H   H79       1.0  0.78008  0.34001  0.21897  1.0000
  S   S28       1.0  0.64337  0.43948  0.31922  1.0000
  H   H80       1.0  0.75760  0.28729  0.04025  1.0000
  H   H81       1.0  0.61174  0.03769  0.05697  1.0000
  N   N7        1.0  0.83538  0.39566  0.26042  1.0000
  C   C77       1.0  0.81029  0.38805  0.33245  1.0000
  C   C78       1.0  0.84680  0.41224  0.30075  1.0000
  H   H82       1.0  0.90132  0.41070  0.22492  1.0000
  H   H83       1.0  0.52611  0.48196  0.21875  1.0000
  C   C79       1.0  0.76778  0.35847  0.01836  1.0000
  H   H84       1.0  0.77690  0.43241  0.00719  1.0000
  C   C80       1.0  0.60371  0.00300  0.07288  1.0000
  H   H85       1.0  0.62872  0.22414  0.65194  1.0000
  H   H86       1.0  0.81873  0.40280  0.36402  1.0000
  S   S29       1.0  0.53825  0.30219  0.58424  1.0000
  Fe  Fe15      1.0  0.54042  0.26339  0.52496  1.0000
  S   S30       1.0  0.61032  0.30483  0.48145  1.0000
  C   C81       1.0  0.60389  0.41339  0.52379  1.0000
  H   H87       1.0  0.53651  0.41111  0.46991  1.0000
  C   C82       1.0  0.67364  0.39274  0.37801  1.0000
  C   C83       1.0  0.66530  0.36278  0.41383  1.0000
  C   C84       1.0  0.61755  0.33946  0.43490  1.0000
  C   C85       1.0  0.57801  0.34621  0.41954  1.0000
  C   C86       1.0  0.58654  0.37665  0.38403  1.0000
  H   H88       1.0  0.61124  0.40461  0.49268  1.0000
  H   H89       1.0  0.69623  0.35808  0.42557  1.0000
  H   H90       1.0  0.54097  0.32821  0.43512  1.0000
  H   H91       1.0  0.57643  0.43970  0.63584  1.0000
  C   C87       1.0  0.63120  0.43485  0.59512  1.0000
  C   C88       1.0  0.54886  0.42152  0.57266  1.0000
  H   H92       1.0  0.71069  0.41085  0.36242  1.0000
  N   N8        1.0  0.55863  0.41180  0.53301  1.0000
  C   C89       1.0  0.63435  0.40015  0.36304  1.0000
  H   H93       1.0  0.67588  0.42449  0.54719  1.0000
  H   H94       1.0  0.55582  0.38191  0.37263  1.0000
  C   C90       1.0  0.58500  0.43332  0.60426  1.0000
  S   S31       1.0  0.52458  0.19134  0.55842  1.0000
  H   H95       1.0  0.51239  0.41889  0.58035  1.0000
  Fe  Fe16      1.0  0.51611  0.22849  0.61637  1.0000
  H   H96       1.0  0.59082  0.12504  0.61195  1.0000
  C   C91       1.0  0.54964  0.10168  0.60677  1.0000
  C   C92       1.0  0.64081  0.42487  0.55460  1.0000
  H   H97       1.0  0.65898  0.44263  0.61954  1.0000
  C   C93       1.0  0.51897  0.39572  0.50088  1.0000
  H   H98       1.0  0.55726  0.06630  0.55086  1.0000
  H   H99       1.0  0.52982  0.13143  0.65989  1.0000
  C   C94       1.0  0.53082  0.06874  0.57261  1.0000
  H   H100      1.0  0.73302  0.32785  0.34685  1.0000
  C   C95       1.0  0.51493  0.10547  0.63368  1.0000
  Fe  Fe17      1.0  0.76974  0.27915  0.93073  1.0000
  S   S32       1.0  0.80063  0.23062  0.95471  1.0000
  Fe  Fe18      1.0  0.74673  0.22824  0.84367  1.0000
  S   S33       1.0  0.77658  0.17653  0.86242  1.0000
  S   S34       1.0  0.72451  0.22275  0.77492  1.0000
  Fe  Fe19      1.0  0.73267  0.16479  0.92247  1.0000
  S   S35       1.0  0.66973  0.08741  0.94864  1.0000
  Fe  Fe20      1.0  0.84206  0.24643  0.89242  1.0000
  S   S36       1.0  0.92780  0.27058  0.89016  1.0000
  S   S37       1.0  0.69921  0.21310  0.90181  1.0000
  S   S38       1.0  0.81490  0.29841  0.87040  1.0000
  H   H101      1.0  0.66605  0.00503  0.88009  1.0000
  H   H102      1.0  0.86894  0.41210  0.92891  1.0000
  C   C96       1.0  0.61909  0.10897  0.81352  1.0000
  H   H103      1.0  0.86846  0.34916  0.97275  1.0000
  H   H104      1.0  0.92261  0.31489  0.81045  1.0000
  C   C97       1.0  0.91948  0.44449  0.87633  1.0000
  C   C98       1.0  0.67304  0.22528  0.75033  1.0000
  C   C99       1.0  0.63370  0.22626  0.77302  1.0000
  C   C100      1.0  0.59242  0.22585  0.75210  1.0000
  C   C101      1.0  0.59023  0.22519  0.70833  1.0000
  C   C102      1.0  0.98938  0.42738  0.87216  1.0000
  C   C103      1.0  0.67066  0.22420  0.70653  1.0000
  H   H105      1.0  0.63497  0.22732  0.80667  1.0000
  H   H106      1.0  0.89848  0.46173  0.86388  1.0000
  C   C104      1.0  0.97115  0.39866  0.90866  1.0000
  H   H107      1.0  0.61267  0.04492  0.87271  1.0000
  N   N9        1.0  0.92785  0.39259  0.92820  1.0000
  C   C105      1.0  0.66510  0.02945  0.96535  1.0000
  C   C106      1.0  0.96296  0.44989  0.85568  1.0000
  H   H108      1.0  0.99111  0.38012  0.92069  1.0000
  H   H109      1.0  0.97606  0.47125  0.82686  1.0000
  H   H110      1.0  0.74644  0.05648  0.96482  1.0000
  C   C107      1.0  0.96226  0.32539  0.81586  1.0000
  C   C108      1.0  0.70836  0.02442  0.97104  1.0000
  C   C109      1.0  0.64157  0.05194  0.84915  1.0000
  H   H111      1.0  0.61471  0.11724  0.78064  1.0000
  H   H112      1.0  0.56210  0.22643  0.77000  1.0000
  C   C110      1.0  0.90272  0.41604  0.91306  1.0000
  H   H113      1.0  0.91305  0.32768  0.96368  1.0000
  C   C111      1.0  0.71857  0.07247  0.79141  1.0000
  S   S39       1.0  0.77278  0.34725  0.96440  1.0000
  C   C112      1.0  0.97481  0.30802  0.85162  1.0000
  H   H114      1.0  0.69453  0.12030  0.76240  1.0000
  C   C113      1.0  0.68736  0.09411  0.78776  1.0000
  H   H115      1.0  0.57990  0.08519  0.82700  1.0000
  H   H116      1.0  0.93274  0.38558  0.99336  1.0000
  N   N10       1.0  0.64932  0.08356  0.81637  1.0000
  H   H117      1.0  0.63908  0.14578  0.83064  1.0000
  S   S40       1.0  0.53599  0.22255  0.68399  1.0000
  C   C114      1.0  0.90975  0.36241  0.96645  1.0000
  H   H118      1.0  0.99085  0.37023  0.75978  1.0000
  H   H119      1.0  0.74946  0.08196  0.76920  1.0000
  C   C115      1.0  0.00116  0.35690  0.78717  1.0000
  C   C116      1.0  0.71073  0.03996  0.82465  1.0000
  C   C117      1.0  0.62971  0.22448  0.68559  1.0000
  H   H120      1.0  0.73528  0.02370  0.82844  1.0000
  H   H121      1.0  0.70097  0.22358  0.68867  1.0000
  C   C118      1.0  0.67185  0.02940  0.85362  1.0000
  S   S41       1.0  0.82223  0.54083  0.19053  1.0000
  S   S42       1.0  0.77321  0.55813  0.27731  1.0000
  Fe  Fe21      1.0  0.75939  0.55846  0.20816  1.0000
  S   S43       1.0  0.75403  0.62686  0.18490  1.0000
  Fe  Fe22      1.0  0.83092  0.53457  0.25957  1.0000
  S   S44       1.0  0.90321  0.54617  0.29367  1.0000
  Fe  Fe23      1.0  0.55278  0.70513  0.08380  1.0000
  S   S45       1.0  0.56833  0.64096  0.10191  1.0000
  Fe  Fe24      1.0  0.57929  0.80616  0.04037  1.0000
  H   H122      1.0  0.69411  0.65282  0.30517  1.0000
  S   S46       1.0  0.58339  0.78543  0.10718  1.0000
  C   C119      1.0  0.97959  0.64959  0.29247  1.0000
  H   H123      1.0  0.52182  0.97333  0.07748  1.0000
  C   C120      1.0  0.96474  0.60022  0.30557  1.0000
  C   C121      1.0  0.67613  0.93993  0.10815  1.0000
  S   S47       1.0  0.55455  0.72678  0.01638  1.0000
  H   H124      1.0  0.71556  0.67291  0.25201  1.0000
  C   C122      1.0  0.00000  0.59293  0.32886  1.0000
  C   C123      1.0  0.70295  0.62999  0.15987  1.0000
  C   C124      1.0  0.70674  0.67779  0.15513  1.0000
  C   C125      1.0  0.66641  0.68212  0.13710  1.0000
  C   C126      1.0  0.62171  0.63859  0.12327  1.0000
  C   C127      1.0  0.61820  0.59086  0.12754  1.0000
  C   C128      1.0  0.65838  0.58649  0.14581  1.0000
  H   H125      1.0  0.74113  0.71178  0.16562  1.0000
  H   H126      1.0  0.66993  0.71913  0.13397  1.0000
  H   H127      1.0  0.58396  0.55686  0.11689  1.0000
  H   H128      1.0  0.65482  0.54948  0.14908  1.0000
  C   C129      1.0  0.61863  0.60501  0.23711  1.0000
  H   H129      1.0  0.73155  0.63089  0.27674  1.0000
  C   C130      1.0  0.64126  0.54839  0.26804  1.0000
  C   C131      1.0  0.58448  0.91381  0.11154  1.0000
  N   N11       1.0  0.65271  0.59691  0.25896  1.0000
  H   H130      1.0  0.62777  0.64343  0.22965  1.0000
  C   C132      1.0  0.70065  0.64057  0.27427  1.0000
  C   C133      1.0  0.55331  0.96680  0.08412  1.0000
  H   H131      1.0  0.54654  0.57060  0.20391  1.0000
  H   H132      1.0  0.70639  0.95711  0.08358  1.0000
  H   H133      1.0  0.66756  0.54178  0.28616  1.0000
  H   H134      1.0  0.95309  0.65598  0.27454  1.0000
  N   N12       1.0  0.63361  0.94890  0.09946  1.0000
  C   C134      1.0  0.57249  0.56386  0.22250  1.0000
  H   H135      1.0  0.69313  0.95609  0.13897  1.0000
  H   H136      1.0  0.66261  0.89849  0.10776  1.0000
  C   C135      1.0  0.59565  0.50637  0.25370  1.0000
  C   C136      1.0  0.64366  0.99341  0.08092  1.0000
  C   C137      1.0  0.56124  0.51424  0.23058  1.0000
  S   S48       1.0  0.64855  0.87911  0.01434  1.0000
  H   H137      1.0  0.57647  0.87898  0.12708  1.0000
  C   C138      1.0  0.54358  0.92200  0.10376  1.0000
  H   H138      1.0  0.55910  0.61809  0.01238  1.0000
  H   H139      1.0  0.98900  0.55507  0.33942  1.0000
  H   H140      1.0  0.50460  0.89350  0.11285  1.0000
  C   C139      1.0  0.70240  0.97791  0.98538  1.0000
  C   C140      1.0  0.65328  0.93582  0.99420  1.0000
  H   H141      1.0  0.55661  0.60983  0.93516  1.0000
  H   H142      1.0  0.73621  0.97465  0.98999  1.0000
  H   H143      1.0  0.58209  0.99032  0.96895  1.0000
  C   C141      1.0  0.61592  0.98708  0.97344  1.0000
  H   H144      1.0  0.57192  0.90863  0.99431  1.0000
  C   C142      1.0  0.52111  0.59617  0.95276  1.0000
  C   C143      1.0  0.60997  0.94060  0.98782  1.0000
  C   C144      1.0  0.52256  0.60091  0.99602  1.0000
