data_image0
_chemical_formula_structural       FeHSHC2HS4C2H2C5NHNH3CH2C2H7CH2CH2CHCH2CHCFeSH3CH2CNH3CH4C5SHFeC3FeNHFeHS2CHFeCHS2C3H2CH2CH2C2HCH2S3C4H2C2H2CH5SHFeHFeH2CNH2C3H2SHC2HSFeCHSHCHCSHCHFeC2NH2CH2CH2SCHCHC3H3CH2C2HC2HCHSCHS2HCHC2FeH2C2HNC6H2C3H4CH3SH3CHC3HCSH2C3HCFeSHSH3FeSHCH3NCHC2HC2HSHC2H2CH3CSCFeS2FeH3S2FeHCH2CHSH2CHCHNCHC2H2C3H3CHC3H2C3HCHFeHCSCHCHSH2C4H3CSCHCFeSHSCHCHC3H2CFeCH2CHFeCNCH4C2H2CH3C2
_chemical_formula_sum              "Fe20 H180 S40 C150 N10"
_cell_length_a       26.1843
_cell_length_b       28.3132
_cell_length_c       26.2818
_cell_angle_alpha    87.0408
_cell_angle_beta     86.4415
_cell_angle_gamma    99.4263

_space_group_name_H-M_alt    "P 1"
_space_group_IT_number       1

loop_
  _space_group_symop_operation_xyz
  'x, y, z'

loop_
  _atom_site_type_symbol
  _atom_site_label
  _atom_site_symmetry_multiplicity
  _atom_site_fract_x
  _atom_site_fract_y
  _atom_site_fract_z
  _atom_site_occupancy
  Fe  Fe1       1.0  0.28421  0.06089  0.16394  1.0000
  H   H1        1.0  0.24842  0.17168  0.05967  1.0000
  S   S1        1.0  0.28130  0.13964  0.15654  1.0000
  H   H2        1.0  0.16564  0.38225  0.14077  1.0000
  C   C1        1.0  0.07688  0.07790  0.33872  1.0000
  C   C2        1.0  0.21588  0.00805  0.34614  1.0000
  H   H3        1.0  0.10126  0.16135  0.18999  1.0000
  S   S2        1.0  0.31271  0.02812  0.09468  1.0000
  S   S3        1.0  0.33262  0.02500  0.21692  1.0000
  S   S4        1.0  0.06865  0.19700  0.09646  1.0000
  S   S5        1.0  0.21243  0.00577  0.17829  1.0000
  C   C3        1.0  0.03394  0.06925  0.23409  1.0000
  C   C4        1.0  0.12749  0.17916  0.11110  1.0000
  H   H4        1.0  0.18353  0.13598  0.21356  1.0000
  H   H5        1.0  0.24117  0.02716  0.31501  1.0000
  C   C5        1.0  0.13277  0.16225  0.16117  1.0000
  C   C6        1.0  0.17924  0.14800  0.17454  1.0000
  C   C7        1.0  0.22110  0.15152  0.13804  1.0000
  C   C8        1.0  0.21584  0.16830  0.08780  1.0000
  C   C9        1.0  0.04499  0.35651  0.09641  1.0000
  N   N1        1.0  0.10221  0.37068  0.09160  1.0000
  H   H6        1.0  0.10350  0.07090  0.36861  1.0000
  N   N2        1.0  0.05025  0.03266  0.31957  1.0000
  H   H7        1.0  0.10396  0.39188  0.16892  1.0000
  H   H8        1.0  0.46904  0.05977  0.18670  1.0000
  H   H9        1.0  0.07524  0.07882  0.22479  1.0000
  C   C10       1.0  0.16891  0.18182  0.07421  1.0000
  H   H10       1.0  0.16306  0.42967  0.06493  1.0000
  H   H11       1.0  0.11118  0.07314  0.08516  1.0000
  C   C11       1.0  0.12302  0.36919  0.14282  1.0000
  C   C12       1.0  0.12001  0.41972  0.06738  1.0000
  H   H12       1.0  0.44803  0.14166  0.17997  1.0000
  H   H13       1.0  0.16816  0.34641  0.05403  1.0000
  H   H14       1.0  0.11656  0.29919  0.07690  1.0000
  H   H15       1.0  0.11713  0.33220  0.16105  1.0000
  H   H16       1.0  0.10807  0.00920  0.08425  1.0000
  H   H17       1.0  0.04835  0.09864  0.35607  1.0000
  H   H18       1.0  0.51843  0.21161  0.16380  1.0000
  C   C13       1.0  0.48823  0.13648  0.17607  1.0000
  H   H19       1.0  0.16366  0.04926  0.05535  1.0000
  H   H20       1.0  0.10076  0.10147  0.30790  1.0000
  C   C14       1.0  0.50013  0.09036  0.17996  1.0000
  H   H21       1.0  0.03578  0.10146  0.06066  1.0000
  H   H22       1.0  0.04532  0.28702  0.13662  1.0000
  C   C15       1.0  0.12050  0.04387  0.06138  1.0000
  H   H23       1.0  0.10390  0.44732  0.08911  1.0000
  C   C16       1.0  0.12518  0.33666  0.05983  1.0000
  H   H24       1.0  0.02449  0.41983  0.05541  1.0000
  H   H25       1.0  0.11900  0.03068  0.26922  1.0000
  C   C17       1.0  0.08984  0.00698  0.29571  1.0000
  H   H26       1.0  0.11248  0.99150  0.32472  1.0000
  C   C18       1.0  0.02410  0.00202  0.36444  1.0000
  Fe  Fe2       1.0  0.35559  0.98688  0.14809  1.0000
  S   S6        1.0  0.13365  0.04201  0.47121  1.0000
  H   H27       1.0  0.15641  0.08364  0.64113  1.0000
  H   H28       1.0  0.21750  0.11366  0.61156  1.0000
  H   H29       1.0  0.06586  0.17958  0.64405  1.0000
  C   C19       1.0  0.19560  0.19165  0.66300  1.0000
  H   H30       1.0  0.22237  0.18785  0.55905  1.0000
  H   H31       1.0  0.23242  0.18307  0.64901  1.0000
  C   C20       1.0  0.18152  0.17552  0.55028  1.0000
  N   N3        1.0  0.15082  0.14650  0.59369  1.0000
  H   H32       1.0  0.18287  0.15448  0.51558  1.0000
  H   H33       1.0  0.17312  0.07896  0.57424  1.0000
  H   H34       1.0  0.10059  0.10544  0.54371  1.0000
  C   C21       1.0  0.14944  0.17591  0.63865  1.0000
  H   H35       1.0  0.16440  0.20798  0.54020  1.0000
  H   H36       1.0  0.20561  0.07208  0.38392  1.0000
  H   H37       1.0  0.07858  0.15822  0.56344  1.0000
  H   H38       1.0  0.07352  0.10631  0.60764  1.0000
  C   C22       1.0  0.09856  0.12852  0.57656  1.0000
  C   C23       1.0  0.17555  0.10403  0.60577  1.0000
  C   C24       1.0  0.10314  0.19014  0.65927  1.0000
  C   C25       1.0  0.16203  0.00896  0.42526  1.0000
  C   C26       1.0  0.10328  0.21738  0.70218  1.0000
  S   S7        1.0  0.08678  0.99696  0.61330  1.0000
  H   H39       1.0  0.05233  0.99322  0.39210  1.0000
  Fe  Fe3       1.0  0.07299  0.00103  0.52979  1.0000
  C   C27       1.0  0.19568  0.03340  0.38520  1.0000
  C   C28       1.0  0.19502  0.21809  0.70649  1.0000
  C   C29       1.0  0.10170  0.10095  0.77407  1.0000
  Fe  Fe4       1.0  0.05950  0.22124  0.01504  1.0000
  N   N4        1.0  0.09552  0.04363  0.01221  1.0000
  H   H40       1.0  0.13890  0.09031  0.77965  1.0000
  Fe  Fe5       1.0  0.06397  0.30459  0.93617  1.0000
  H   H41       1.0  0.16535  0.19529  0.03559  1.0000
  S   S8        1.0  0.12130  0.25623  0.95610  1.0000
  S   S9        1.0  0.12176  0.15939  0.85328  1.0000
  C   C30       1.0  0.07171  0.08172  0.73508  1.0000
  H   H42       1.0  0.08544  0.05595  0.71100  1.0000
  Fe  Fe6       1.0  0.08038  0.20651  0.90218  1.0000
  C   C31       1.0  0.08375  0.13421  0.80556  1.0000
  H   H43       1.0  0.23032  0.22837  0.72558  1.0000
  S   S10       1.0  0.02814  0.25741  0.87671  1.0000
  S   S11       1.0  0.09659  0.38412  0.92515  1.0000
  C   C32       1.0  0.11459  0.00673  0.98136  1.0000
  C   C33       1.0  0.03559  0.14763  0.79841  1.0000
  C   C34       1.0  0.05783  0.42876  0.93578  1.0000
  H   H44       1.0  0.10607  0.12136  0.00636  1.0000
  H   H45       1.0  0.15572  0.09713  0.97319  1.0000
  C   C35       1.0  0.14887  0.23067  0.72621  1.0000
  H   H46       1.0  0.10873  0.42243  0.02730  1.0000
  H   H47       1.0  0.10967  0.33638  0.02138  1.0000
  C   C36       1.0  0.08172  0.47710  0.93396  1.0000
  H   H48       1.0  0.14817  0.25002  0.76077  1.0000
  H   H49       1.0  0.09769  0.00516  0.94351  1.0000
  C   C37       1.0  0.11316  0.09074  0.98373  1.0000
  C   C38       1.0  0.03832  0.03510  0.02247  1.0000
  H   H50       1.0  0.09334  0.09316  0.94761  1.0000
  C   C39       1.0  0.02417  0.09640  0.72723  1.0000
  H   H51       1.0  0.15762  0.01431  0.97384  1.0000
  H   H52       1.0  0.06732  0.22677  0.71810  1.0000
  S   S12       1.0  0.02349  0.16771  0.96301  1.0000
  S   S13       1.0  0.28927  0.92509  0.16108  1.0000
  S   S14       1.0  0.19431  0.94688  0.04968  1.0000
  C   C40       1.0  0.20303  0.95800  0.34741  1.0000
  C   C41       1.0  0.12159  0.84822  0.16184  1.0000
  C   C42       1.0  0.21136  0.85339  0.05760  1.0000
  C   C43       1.0  0.36590  0.86476  0.05450  1.0000
  H   H53       1.0  0.38601  0.88783  0.08279  1.0000
  H   H54       1.0  0.06741  0.75579  0.16440  1.0000
  C   C44       1.0  0.02835  0.87894  0.21493  1.0000
  C   C45       1.0  0.48571  0.96434  0.14963  1.0000
  H   H55       1.0  0.44194  0.95692  0.22252  1.0000
  H   H56       1.0  0.12475  0.85259  0.20339  1.0000
  C   C46       1.0  0.06896  0.82277  0.09370  1.0000
  H   H57       1.0  0.08515  0.85594  0.06975  1.0000
  H   H58       1.0  0.35939  0.95511  0.04520  1.0000
  H   H59       1.0  0.14748  0.82233  0.15091  1.0000
  H   H60       1.0  0.23275  0.86292  0.09040  1.0000
  H   H61       1.0  0.04697  0.86172  0.24457  1.0000
  S   S15       1.0  0.22481  0.92518  0.29767  1.0000
  H   H62       1.0  0.07163  0.97672  0.27416  1.0000
  Fe  Fe7       1.0  0.26232  0.96655  0.22573  1.0000
  H   H63       1.0  0.32601  0.85102  0.07180  1.0000
  Fe  Fe8       1.0  0.24503  0.96946  0.11310  1.0000
  H   H64       1.0  0.13778  0.88353  0.14152  1.0000
  H   H65       1.0  0.09355  0.79544  0.08403  1.0000
  C   C47       1.0  0.52096  0.94573  0.23019  1.0000
  N   N5        1.0  0.06747  0.83161  0.14895  1.0000
  H   H66       1.0  0.38755  0.83429  0.05080  1.0000
  H   H67       1.0  0.05186  0.78661  0.21934  1.0000
  C   C48       1.0  0.04726  0.78511  0.17772  1.0000
  C   C49       1.0  0.47913  0.95571  0.20267  1.0000
  C   C50       1.0  0.03478  0.86756  0.16317  1.0000
  H   H68       1.0  0.22036  0.77889  0.06444  1.0000
  H   H69       1.0  0.51568  0.93922  0.27126  1.0000
  S   S16       1.0  0.43524  0.97890  0.11355  1.0000
  H   H70       1.0  0.02967  0.80876  0.08165  1.0000
  C   C51       1.0  0.20417  0.80587  0.04305  1.0000
  C   C52       1.0  0.14975  0.95895  0.42671  1.0000
  H   H71       1.0  0.12443  0.93968  0.45762  1.0000
  S   S17       1.0  0.07515  0.86591  0.65749  1.0000
  Fe  Fe9       1.0  0.04070  0.92262  0.61409  1.0000
  C   C53       1.0  0.17039  0.93357  0.38806  1.0000
  H   H72       1.0  0.16054  0.89486  0.38938  1.0000
  S   S18       1.0  0.03211  0.92483  0.52901  1.0000
  H   H73       1.0  0.05810  0.73419  0.67606  1.0000
  C   C54       1.0  0.03533  0.70604  0.70154  1.0000
  H   H74       1.0  0.34342  0.96025  0.98113  1.0000
  C   C55       1.0  0.15357  0.82763  0.97422  1.0000
  S   S19       1.0  0.04445  0.67123  0.90749  1.0000
  H   H75       1.0  0.10571  0.97060  0.00173  1.0000
  C   C56       1.0  0.28904  0.78709  0.93926  1.0000
  H   H76       1.0  0.27365  0.74925  0.94726  1.0000
  Fe  Fe10      1.0  0.07833  0.71081  0.97311  1.0000
  C   C57       1.0  0.03955  0.83783  0.71295  1.0000
  C   C58       1.0  0.27834  0.81010  0.89405  1.0000
  N   N6        1.0  0.36463  0.89166  0.00458  1.0000
  H   H77       1.0  0.14473  0.90178  0.96686  1.0000
  H   H78       1.0  0.13161  0.81790  0.94170  1.0000
  C   C59       1.0  0.33579  0.86290  0.96678  1.0000
  H   H79       1.0  0.10611  0.81439  0.74404  1.0000
  H   H80       1.0  0.05583  0.76956  0.81996  1.0000
  C   C60       1.0  0.16131  0.87516  0.98834  1.0000
  H   H81       1.0  0.43858  0.87709  0.97529  1.0000
  H   H82       1.0  0.29863  0.92395  0.02738  1.0000
  S   S20       1.0  0.16279  0.73289  0.98575  1.0000
  C   C61       1.0  0.05235  0.51356  0.94348  1.0000
  H   H83       1.0  0.32289  0.79272  0.00988  1.0000
  C   C62       1.0  0.17461  0.79284  0.00177  1.0000
  H   H84       1.0  0.07116  0.55065  0.94208  1.0000
  C   C63       1.0  0.03639  0.78861  0.79240  1.0000
  C   C64       1.0  0.32594  0.88483  0.91933  1.0000
  C   C65       1.0  0.06474  0.81393  0.74945  1.0000
  H   H85       1.0  0.33996  0.92242  0.90948  1.0000
  H   H86       1.0  0.42139  0.93143  0.94835  1.0000
  H   H87       1.0  0.12321  0.48639  0.92526  1.0000
  C   C66       1.0  0.18954  0.88798  0.03047  1.0000
  H   H88       1.0  0.25499  0.79009  0.86715  1.0000
  H   H89       1.0  0.05188  0.61406  0.78224  1.0000
  C   C67       1.0  0.29716  0.85880  0.88385  1.0000
  C   C68       1.0  0.34040  0.93440  0.01479  1.0000
  H   H90       1.0  0.28889  0.87652  0.84847  1.0000
  C   C69       1.0  0.31731  0.81282  0.97525  1.0000
  C   C70       1.0  0.41900  0.90809  0.98404  1.0000
  H   H91       1.0  0.44206  0.92941  0.01194  1.0000
  C   C71       1.0  0.05957  0.67320  0.72822  1.0000
  H   H92       1.0  0.04691  0.94582  0.80848  1.0000
  S   S21       1.0  0.03069  0.66138  0.03418  1.0000
  C   C72       1.0  0.03045  0.63779  0.76228  1.0000
  H   H93       1.0  0.10135  0.67577  0.72303  1.0000
  S   S22       1.0  0.02498  0.76522  0.97206  1.0000
  S   S23       1.0  0.81579  0.11027  0.16786  1.0000
  H   H94       1.0  0.87166  0.20038  0.12524  1.0000
  C   C73       1.0  0.82532  0.10086  0.06436  1.0000
  H   H95       1.0  0.63811  0.04731  0.20473  1.0000
  C   C74       1.0  0.86335  0.17727  0.09425  1.0000
  C   C75       1.0  0.83623  0.13062  0.10457  1.0000
  Fe  Fe11      1.0  0.79144  0.03071  0.17532  1.0000
  H   H96       1.0  0.63991  0.10620  0.07622  1.0000
  H   H97       1.0  0.60852  0.20111  0.15359  1.0000
  C   C76       1.0  0.88026  0.19398  0.04390  1.0000
  C   C77       1.0  0.57984  0.16910  0.16108  1.0000
  H   H98       1.0  0.68537  0.17980  0.18409  1.0000
  N   N7        1.0  0.64735  0.11345  0.15663  1.0000
  C   C78       1.0  0.68650  0.15810  0.15003  1.0000
  C   C79       1.0  0.66083  0.08431  0.20095  1.0000
  C   C80       1.0  0.65219  0.08669  0.11001  1.0000
  C   C81       1.0  0.59327  0.12235  0.16461  1.0000
  C   C82       1.0  0.96813  0.29658  0.12473  1.0000
  C   C83       1.0  0.94728  0.07279  0.20883  1.0000
  H   H99       1.0  0.80459  0.06474  0.07200  1.0000
  H   H100      1.0  0.70239  0.07982  0.19762  1.0000
  C   C84       1.0  0.95930  0.03370  0.29043  1.0000
  C   C85       1.0  0.92658  0.04781  0.25451  1.0000
  C   C86       1.0  0.55175  0.08331  0.17446  1.0000
  H   H101      1.0  0.65397  0.10143  0.23737  1.0000
  H   H102      1.0  0.68113  0.18039  0.11525  1.0000
  H   H103      1.0  0.69299  0.08145  0.10103  1.0000
  H   H104      1.0  0.94050  0.01477  0.32507  1.0000
  C   C87       1.0  0.01357  0.06906  0.04812  1.0000
  H   H105      1.0  0.72676  0.15021  0.14495  1.0000
  H   H106      1.0  0.62787  0.05041  0.11399  1.0000
  H   H107      1.0  0.88478  0.03953  0.26230  1.0000
  S   S24       1.0  0.76066  0.99353  0.25078  1.0000
  H   H108      1.0  0.92165  0.08429  0.18154  1.0000
  H   H109      1.0  0.89422  0.31342  0.10557  1.0000
  H   H110      1.0  0.55886  0.04687  0.17741  1.0000
  C   C88       1.0  0.95963  0.06231  0.05766  1.0000
  H   H111      1.0  0.94159  0.08946  0.07619  1.0000
  C   C89       1.0  0.95707  0.37002  0.07936  1.0000
  C   C90       1.0  0.93578  0.32565  0.10371  1.0000
  C   C91       1.0  0.01081  0.38545  0.07564  1.0000
  H   H112      1.0  0.93192  0.39240  0.06239  1.0000
  C   C92       1.0  0.00087  0.08333  0.19853  1.0000
  S   S25       1.0  0.73095  0.99058  0.12982  1.0000
  H   H113      1.0  0.95173  0.26155  0.14263  1.0000
  H   H114      1.0  0.88708  0.01549  0.05113  1.0000
  C   C93       1.0  0.92888  0.02090  0.04335  1.0000
  C   C94       1.0  0.01422  0.04432  0.28133  1.0000
  C   C95       1.0  0.52800  0.17577  0.16686  1.0000
  H   H115      1.0  0.01684  0.10335  0.16318  1.0000
  C   C96       1.0  0.02188  0.31164  0.12120  1.0000
  Fe  Fe12      1.0  0.00956  0.02012  0.62659  1.0000
  S   S26       1.0  0.98605  0.07547  0.67790  1.0000
  H   H116      1.0  0.99623  0.02016  0.38673  1.0000
  S   S27       1.0  0.99966  0.03119  0.54305  1.0000
  H   H117      1.0  0.93329  0.44429  0.96477  1.0000
  H   H118      1.0  0.87513  0.00766  0.80550  1.0000
  H   H119      1.0  0.98543  0.37998  0.94867  1.0000
  Fe  Fe13      1.0  0.97391  0.22159  0.94238  1.0000
  S   S28       1.0  0.89145  0.18492  0.94070  1.0000
  H   H120      1.0  0.93165  0.09728  0.89465  1.0000
  C   C97       1.0  0.97480  0.45356  0.95629  1.0000
  H   H121      1.0  0.83236  0.09512  0.98280  1.0000
  H   H122      1.0  0.87423  0.00609  0.94765  1.0000
  H   H123      1.0  0.96210  0.05571  0.93100  1.0000
  N   N8        1.0  0.91507  0.02377  0.87334  1.0000
  C   C98       1.0  0.00573  0.99297  0.00870  1.0000
  H   H124      1.0  0.02113  0.17274  0.82274  1.0000
  C   C99       1.0  0.84110  0.11802  0.01382  1.0000
  C   C100      1.0  0.86903  0.16447  0.00357  1.0000
  H   H125      1.0  0.83735  0.98630  0.89451  1.0000
  C   C101      1.0  0.86663  0.01546  0.90750  1.0000
  C   C102      1.0  0.00422  0.41708  0.94708  1.0000
  H   H126      1.0  0.88067  0.06938  0.82160  1.0000
  S   S29       1.0  0.00511  0.27288  0.99959  1.0000
  H   H127      1.0  0.93528  0.04770  0.79380  1.0000
  C   C103      1.0  0.95033  0.06465  0.89222  1.0000
  C   C104      1.0  0.90093  0.03771  0.82149  1.0000
  H   H128      1.0  0.84801  0.04814  0.90836  1.0000
  H   H129      1.0  0.96935  0.14055  0.75317  1.0000
  C   C105      1.0  0.95191  0.98614  0.01940  1.0000
  H   H130      1.0  0.00509  0.01624  0.81686  1.0000
  H   H131      1.0  0.98635  0.07542  0.86695  1.0000
  H   H132      1.0  0.90106  0.23009  0.03617  1.0000
  C   C106      1.0  0.00616  0.12916  0.75909  1.0000
  S   S30       1.0  0.93850  0.74164  0.09741  1.0000
  C   C107      1.0  0.56959  0.94466  0.20494  1.0000
  Fe  Fe14      1.0  0.81325  0.94088  0.23244  1.0000
  S   S31       1.0  0.75412  0.89289  0.19197  1.0000
  S   S32       1.0  0.86748  0.90833  0.28164  1.0000
  Fe  Fe15      1.0  0.78742  0.93889  0.12174  1.0000
  H   H133      1.0  0.94625  0.95973  0.20507  1.0000
  H   H134      1.0  0.89718  0.80741  0.16112  1.0000
  H   H135      1.0  0.67647  0.77086  0.35540  1.0000
  S   S33       1.0  0.62156  0.93339  0.24083  1.0000
  S   S34       1.0  0.81583  0.91172  0.04805  1.0000
  Fe  Fe16      1.0  0.70365  0.94908  0.20437  1.0000
  H   H136      1.0  0.61313  0.95161  0.13198  1.0000
  C   C108      1.0  0.85174  0.86561  0.06121  1.0000
  H   H137      1.0  0.81199  0.96418  0.34912  1.0000
  H   H138      1.0  0.53946  0.96923  0.08325  1.0000
  C   C109      1.0  0.86270  0.85428  0.11139  1.0000
  H   H139      1.0  0.00877  0.88410  0.08717  1.0000
  S   S35       1.0  0.84972  0.98284  0.16131  1.0000
  H   H140      1.0  0.66876  0.80445  0.29698  1.0000
  H   H141      1.0  0.85029  0.87443  0.14222  1.0000
  C   C110      1.0  0.90624  0.78989  0.08263  1.0000
  H   H142      1.0  0.73190  0.80033  0.31523  1.0000
  C   C111      1.0  0.88955  0.81635  0.12209  1.0000
  H   H143      1.0  0.69787  0.89440  0.29204  1.0000
  N   N9        1.0  0.69206  0.84752  0.35983  1.0000
  C   C112      1.0  0.53417  0.96265  0.12431  1.0000
  H   H144      1.0  0.99004  0.91821  0.26958  1.0000
  C   C113      1.0  0.97143  0.93494  0.19331  1.0000
  C   C114      1.0  0.57605  0.95300  0.15186  1.0000
  H   H145      1.0  0.79138  0.82887  0.36734  1.0000
  H   H146      1.0  0.93686  0.88310  0.35364  1.0000
  C   C115      1.0  0.69234  0.80386  0.33085  1.0000
  C   C116      1.0  0.99659  0.91172  0.22964  1.0000
  C   C117      1.0  0.87371  0.92246  0.34537  1.0000
  H   H147      1.0  0.00512  0.77389  0.17279  1.0000
  H   H148      1.0  0.61672  0.85468  0.33373  1.0000
  H   H149      1.0  0.95504  0.94121  0.11476  1.0000
  C   C118      1.0  0.71842  0.88964  0.32718  1.0000
  H   H150      1.0  0.75891  0.88626  0.31464  1.0000
  C   C119      1.0  0.97682  0.92470  0.14229  1.0000
  C   C120      1.0  0.84084  0.94971  0.36989  1.0000
  C   C121      1.0  0.00787  0.89147  0.12708  1.0000
  H   H151      1.0  0.72003  0.92319  0.34776  1.0000
  H   H152      1.0  0.00334  0.96736  0.35258  1.0000
  C   C122      1.0  0.91168  0.90460  0.37240  1.0000
  C   C123      1.0  0.63699  0.85340  0.36982  1.0000
  C   C124      1.0  0.72027  0.84410  0.40665  1.0000
  H   H153      1.0  0.81733  0.97616  0.44175  1.0000
  C   C125      1.0  0.84425  0.95688  0.42212  1.0000
  H   H154      1.0  0.83985  0.82647  0.44326  1.0000
  Fe  Fe17      1.0  0.95951  0.95494  0.54893  1.0000
  H   H155      1.0  0.96626  0.85481  0.69182  1.0000
  C   C126      1.0  0.88194  0.93861  0.44929  1.0000
  S   S36       1.0  0.96421  0.94567  0.63384  1.0000
  C   C127      1.0  0.91655  0.91351  0.42403  1.0000
  H   H156      1.0  0.66092  0.86224  0.46180  1.0000
  C   C128      1.0  0.77175  0.83409  0.40355  1.0000
  H   H157      1.0  0.94517  0.89875  0.44504  1.0000
  S   S37       1.0  0.88155  0.94297  0.51561  1.0000
  H   H158      1.0  0.63378  0.88796  0.38714  1.0000
  H   H159      1.0  0.80203  0.84439  0.52689  1.0000
  C   C129      1.0  0.77884  0.84304  0.49400  1.0000
  C   C130      1.0  0.69930  0.85347  0.45566  1.0000
  C   C131      1.0  0.72849  0.85305  0.49849  1.0000
  C   C132      1.0  0.80016  0.83303  0.44676  1.0000
  H   H160      1.0  0.71252  0.86156  0.53531  1.0000
  H   H161      1.0  0.96359  0.73078  0.68971  1.0000
  H   H162      1.0  0.61494  0.82320  0.39509  1.0000
  C   C133      1.0  0.97333  0.56365  0.83123  1.0000
  S   S38       1.0  0.93117  0.67321  0.96930  1.0000
  C   C134      1.0  0.94686  0.89691  0.89311  1.0000
  H   H163      1.0  0.91613  0.81008  0.76731  1.0000
  C   C135      1.0  0.98607  0.83700  0.71999  1.0000
  Fe  Fe18      1.0  0.97475  0.71317  0.02830  1.0000
  S   S39       1.0  0.94521  0.75277  0.84953  1.0000
  H   H164      1.0  0.94782  0.53596  0.85720  1.0000
  S   S40       1.0  0.95994  0.54638  0.96574  1.0000
  C   C136      1.0  0.94150  0.98137  0.87089  1.0000
  H   H165      1.0  0.90937  0.78169  0.00146  1.0000
  C   C137      1.0  0.89683  0.80214  0.03214  1.0000
  H   H166      1.0  0.86048  0.84804  0.98277  1.0000
  C   C138      1.0  0.95769  0.81136  0.76258  1.0000
  C   C139      1.0  0.86934  0.83981  0.02152  1.0000
  C   C140      1.0  0.99191  0.90037  0.86115  1.0000
  H   H167      1.0  0.99353  0.54391  0.80291  1.0000
  H   H168      1.0  0.01046  0.86912  0.85661  1.0000
  C   C141      1.0  0.98267  0.78674  0.79851  1.0000
  Fe  Fe19      1.0  0.98600  0.72128  0.91260  1.0000
  C   C142      1.0  0.92176  0.93665  0.89817  1.0000
  H   H169      1.0  0.02070  0.96457  0.98984  1.0000
  H   H170      1.0  0.92114  0.55142  0.74596  1.0000
  C   C143      1.0  0.91732  0.62120  0.84692  1.0000
  H   H171      1.0  0.88842  0.64227  0.83233  1.0000
  Fe  Fe20      1.0  0.99210  0.62570  0.96882  1.0000
  C   C144      1.0  0.90309  0.56851  0.77813  1.0000
  N   N10       1.0  0.94336  0.59745  0.80614  1.0000
  C   C145      1.0  0.97569  0.63439  0.77053  1.0000
  H   H172      1.0  0.91147  0.66998  0.74910  1.0000
  H   H173      1.0  0.87900  0.53951  0.80365  1.0000
  H   H174      1.0  0.93077  0.86267  0.91314  1.0000
  H   H175      1.0  0.89678  0.59505  0.87764  1.0000
  C   C146      1.0  0.95246  0.66893  0.74324  1.0000
  C   C147      1.0  0.01245  0.94365  0.83425  1.0000
  H   H176      1.0  0.00233  0.58247  0.85575  1.0000
  H   H177      1.0  0.94604  0.64696  0.86517  1.0000
  C   C148      1.0  0.99872  0.50188  0.95466  1.0000
  H   H178      1.0  0.87576  0.59044  0.76194  1.0000
  H   H179      1.0  0.88659  0.93105  0.92309  1.0000
  H   H180      1.0  0.92774  0.95337  0.00962  1.0000
  C   C149      1.0  0.98795  0.98368  0.83917  1.0000
  C   C150      1.0  0.98192  0.70394  0.70911  1.0000
