data_image0
_chemical_formula_structural       HSFeH2SCSHFeHSHCH2SHSHC6H4NC9H8FeHC2H3CHCH4CNH4CHSC2HC2H3CH2NHC2FeCHCH2C4HNHCSHCSCHCHFeSHCHSHCHC2HCH2NC4H2CH6C4H3CH2CH2S2FeSH3NH3FeHC2HC3HCHCHCFeH2CHSC2HC9HCH2CSHC6H2CH4CHCHNH2SCH5CHSFeSFe2SHSHC6H4SNC6HCH5CH2CHFeCSCH3CHC2H5CHSCHCH2CHC4SCS2HFeH5SHFeHSC2HS2FeSC2HCHC5H8CHCH2CH2C3HCFeSCHCHCH2SCHC4SH2C2HC2HC2HFeHCHNC2H2SHCH2S2H2SFeSHC7H4C2H2NSH2C2HSH3NCHCH2C5H8CSFe2H3CFeCNH2SCFeHSHSCHSHFeH3CHCHCNH2CHCH2FeSHS2FeSC7H4CSHCH2FeH5C2SHNSC4H2CHSCH4CFeSHC2HC3H2C2FeCH3FeSFeCS3FeSCFeC6H4CHS2C2H3CNHCH3C5HC2HCHCH6CH2CNCH2C4H4CH4CSH3C2
_chemical_formula_sum              "H288 S64 Fe32 C240 N16"
_cell_length_a       27.2046
_cell_length_b       27.0263
_cell_length_c       41.7235
_cell_angle_alpha    90.0312
_cell_angle_beta     90.1331
_cell_angle_gamma    90.0026

_space_group_name_H-M_alt    "P 1"
_space_group_IT_number       1

loop_
  _space_group_symop_operation_xyz
  'x, y, z'

loop_
  _atom_site_type_symbol
  _atom_site_label
  _atom_site_symmetry_multiplicity
  _atom_site_fract_x
  _atom_site_fract_y
  _atom_site_fract_z
  _atom_site_occupancy
  H   H1        1.0  0.04428  0.41906  0.19078  1.0000
  S   S1        1.0  0.22410  0.07851  0.09353  1.0000
  Fe  Fe1       1.0  0.99587  0.31984  0.24813  1.0000
  H   H2        1.0  0.23378  0.13977  0.24745  1.0000
  H   H3        1.0  0.39092  0.09425  0.12382  1.0000
  S   S2        1.0  0.35238  0.01582  0.07482  1.0000
  C   C1        1.0  0.01478  0.44554  0.08472  1.0000
  S   S3        1.0  0.08211  0.16491  0.20279  1.0000
  H   H4        1.0  0.32989  0.11356  0.11489  1.0000
  Fe  Fe2       1.0  0.27171  0.00914  0.08684  1.0000
  H   H5        1.0  0.15368  0.02020  0.05929  1.0000
  S   S4        1.0  0.04863  0.31088  0.20694  1.0000
  H   H6        1.0  0.28743  0.17639  0.13662  1.0000
  C   C2        1.0  0.04385  0.44272  0.21264  1.0000
  H   H7        1.0  0.30246  0.09270  0.22521  1.0000
  H   H8        1.0  0.19786  0.04276  0.15821  1.0000
  S   S5        1.0  0.00479  0.37619  0.13288  1.0000
  H   H9        1.0  0.08245  0.45487  0.21660  1.0000
  S   S6        1.0  0.01812  0.36153  0.29398  1.0000
  H   H10       1.0  0.21995  0.22171  0.16028  1.0000
  C   C3        1.0  0.18314  0.10028  0.12383  1.0000
  C   C4        1.0  0.15605  0.14383  0.11813  1.0000
  C   C5        1.0  0.12414  0.16352  0.14160  1.0000
  C   C6        1.0  0.11904  0.14000  0.17128  1.0000
  C   C7        1.0  0.14563  0.09600  0.17679  1.0000
  C   C8        1.0  0.17736  0.07615  0.15326  1.0000
  H   H11       1.0  0.16012  0.16290  0.09550  1.0000
  H   H12       1.0  0.10415  0.19739  0.13694  1.0000
  H   H13       1.0  0.14219  0.07757  0.19968  1.0000
  H   H14       1.0  0.04252  0.31672  0.04458  1.0000
  N   N1        1.0  0.34352  0.10013  0.16524  1.0000
  C   C9        1.0  0.35984  0.11705  0.13307  1.0000
  C   C10       1.0  0.38734  0.10019  0.18656  1.0000
  C   C11       1.0  0.32572  0.04866  0.16185  1.0000
  C   C12       1.0  0.30363  0.13076  0.17904  1.0000
  C   C13       1.0  0.28650  0.12156  0.21063  1.0000
  C   C14       1.0  0.27863  0.16800  0.16124  1.0000
  C   C15       1.0  0.24715  0.14816  0.22360  1.0000
  C   C16       1.0  0.23950  0.19451  0.17455  1.0000
  C   C17       1.0  0.22372  0.18455  0.20559  1.0000
  H   H15       1.0  0.37269  0.15612  0.13372  1.0000
  H   H16       1.0  0.29235  0.04744  0.14638  1.0000
  H   H17       1.0  0.19211  0.20396  0.21528  1.0000
  H   H18       1.0  0.41855  0.07909  0.17584  1.0000
  H   H19       1.0  0.38032  0.08206  0.20998  1.0000
  H   H20       1.0  0.40024  0.13860  0.19128  1.0000
  H   H21       1.0  0.35420  0.02427  0.15095  1.0000
  H   H22       1.0  0.31574  0.03186  0.18524  1.0000
  Fe  Fe3       1.0  0.02779  0.23042  0.20508  1.0000
  H   H23       1.0  0.05254  0.43310  0.08387  1.0000
  C   C18       1.0  0.99448  0.41310  0.31597  1.0000
  C   C19       1.0  0.01751  0.36300  0.00561  1.0000
  H   H24       1.0  0.99785  0.48708  0.98859  1.0000
  H   H25       1.0  0.09783  0.03209  0.10756  1.0000
  H   H26       1.0  0.03254  0.41840  0.23290  1.0000
  C   C20       1.0  0.01189  0.33709  0.03441  1.0000
  H   H27       1.0  0.02873  0.48971  0.15876  1.0000
  C   C21       1.0  0.99879  0.48258  0.06313  1.0000
  H   H28       1.0  0.09916  0.00786  0.03734  1.0000
  H   H29       1.0  0.04573  0.01500  0.08398  1.0000
  H   H30       1.0  0.05317  0.36086  0.99445  1.0000
  H   H31       1.0  0.06141  0.47767  0.26790  1.0000
  C   C22       1.0  0.07610  0.99972  0.09882  1.0000
  N   N2        1.0  0.01003  0.48551  0.20897  1.0000
  H   H32       1.0  0.43805  0.11257  0.38888  1.0000
  H   H33       1.0  0.48391  0.07070  0.40506  1.0000
  H   H34       1.0  0.00169  0.48251  0.53460  1.0000
  H   H35       1.0  0.38261  0.08292  0.34443  1.0000
  C   C23       1.0  0.46331  0.08153  0.38300  1.0000
  H   H36       1.0  0.09183  0.07943  0.62576  1.0000
  S   S7        1.0  0.22390  0.08553  0.59619  1.0000
  C   C24       1.0  0.99720  0.43090  0.57431  1.0000
  C   C25       1.0  0.13486  0.17813  0.64741  1.0000
  H   H37       1.0  0.12200  0.06918  0.57499  1.0000
  C   C26       1.0  0.41210  0.05558  0.33918  1.0000
  C   C27       1.0  0.18830  0.11125  0.62798  1.0000
  H   H38       1.0  0.03057  0.41162  0.56778  1.0000
  H   H39       1.0  0.11628  0.21293  0.64315  1.0000
  H   H40       1.0  0.16566  0.17417  0.59979  1.0000
  C   C28       1.0  0.01899  0.42827  0.34411  1.0000
  H   H41       1.0  0.39542  0.02441  0.32557  1.0000
  H   H42       1.0  0.05131  0.40831  0.35196  1.0000
  N   N3        1.0  0.43636  0.03868  0.36912  1.0000
  H   H43       1.0  0.30559  0.15242  0.63030  1.0000
  C   C29       1.0  0.16312  0.15610  0.62287  1.0000
  C   C30       1.0  0.05481  0.06570  0.62381  1.0000
  Fe  Fe4       1.0  0.26335  0.01079  0.59280  1.0000
  C   C31       1.0  0.10456  0.03767  0.56211  1.0000
  H   H44       1.0  0.14100  0.01244  0.61891  1.0000
  C   C32       1.0  0.35542  0.01437  0.44239  1.0000
  H   H45       1.0  0.07636  0.05345  0.54569  1.0000
  H   H46       1.0  0.02171  0.48034  0.38369  1.0000
  C   C33       1.0  0.04335  0.02519  0.60347  1.0000
  C   C34       1.0  0.45807  0.99571  0.49683  1.0000
  C   C35       1.0  0.00227  0.46917  0.36223  1.0000
  C   C36       1.0  0.01879  0.08963  0.64194  1.0000
  H   H47       1.0  0.44591  0.01537  0.51796  1.0000
  N   N4        1.0  0.08251  0.00107  0.58435  1.0000
  H   H48       1.0  0.41039  0.06703  0.43216  1.0000
  C   C37       1.0  0.39027  0.03616  0.42227  1.0000
  S   S8        1.0  0.99364  0.36429  0.62455  1.0000
  H   H49       1.0  0.35013  0.02830  0.46655  1.0000
  C   C38       1.0  0.39940  0.01708  0.39105  1.0000
  S   S9        1.0  0.34559  0.99727  0.59471  1.0000
  C   C39       1.0  0.99326  0.01005  0.60240  1.0000
  H   H50       1.0  0.13425  0.02086  0.54729  1.0000
  C   C40       1.0  0.47338  0.00072  0.36070  1.0000
  H   H51       1.0  0.43895  0.07303  0.32248  1.0000
  Fe  Fe5       1.0  0.03689  0.24010  0.70863  1.0000
  S   S10       1.0  0.10137  0.18491  0.71052  1.0000
  H   H52       1.0  0.31403  0.01142  0.76546  1.0000
  C   C41       1.0  0.31183  0.10424  0.67128  1.0000
  H   H53       1.0  0.23339  0.20262  0.71538  1.0000
  S   S11       1.0  0.03719  0.32402  0.70853  1.0000
  H   H54       1.0  0.20330  0.05389  0.66223  1.0000
  C   C42       1.0  0.25665  0.17568  0.70345  1.0000
  H   H55       1.0  0.04833  0.40058  0.80804  1.0000
  C   C43       1.0  0.02132  0.42246  0.82069  1.0000
  C   C44       1.0  0.18438  0.08837  0.65796  1.0000
  H   H56       1.0  0.38055  0.03659  0.69205  1.0000
  C   C45       1.0  0.03643  0.45727  0.84405  1.0000
  H   H57       1.0  0.00555  0.46092  0.69325  1.0000
  H   H58       1.0  0.25884  0.12908  0.74396  1.0000
  N   N5        1.0  0.31425  0.04875  0.71966  1.0000
  C   C46       1.0  0.29944  0.09552  0.70384  1.0000
  C   C47       1.0  0.13211  0.15604  0.67770  1.0000
  C   C48       1.0  0.15686  0.11087  0.68269  1.0000
  C   C49       1.0  0.28960  0.00662  0.70350  1.0000
  H   H59       1.0  0.03452  0.43917  0.92501  1.0000
  H   H60       1.0  0.15515  0.09349  0.70601  1.0000
  C   C50       1.0  0.36828  0.04205  0.71719  1.0000
  H   H61       1.0  0.38105  0.00856  0.73038  1.0000
  H   H62       1.0  0.06140  0.43188  0.96367  1.0000
  H   H63       1.0  0.26074  0.04794  0.75780  1.0000
  H   H64       1.0  0.24892  0.01061  0.70414  1.0000
  H   H65       1.0  0.31872  0.07741  0.76782  1.0000
  H   H66       1.0  0.30058  0.00319  0.67794  1.0000
  C   C51       1.0  0.30128  0.04659  0.75421  1.0000
  C   C52       1.0  0.03238  0.41692  0.94749  1.0000
  C   C53       1.0  0.27126  0.13269  0.71954  1.0000
  C   C54       1.0  0.26965  0.18306  0.67155  1.0000
  H   H67       1.0  0.07522  0.46194  0.84898  1.0000
  H   H68       1.0  0.04163  0.37822  0.94068  1.0000
  H   H69       1.0  0.38833  0.07455  0.72709  1.0000
  C   C55       1.0  0.00203  0.48672  0.86059  1.0000
  H   H70       1.0  0.02747  0.47891  0.74448  1.0000
  H   H71       1.0  0.02876  0.12061  0.65729  1.0000
  C   C56       1.0  0.29734  0.14751  0.65554  1.0000
  H   H72       1.0  0.25667  0.21555  0.65887  1.0000
  H   H73       1.0  0.33153  0.07696  0.65736  1.0000
  S   S12       1.0  0.28200  0.94698  0.12213  1.0000
  S   S13       1.0  0.35346  0.89456  0.06859  1.0000
  Fe  Fe6       1.0  0.27234  0.89693  0.07905  1.0000
  S   S14       1.0  0.22467  0.82732  0.08156  1.0000
  H   H74       1.0  0.06300  0.53077  0.18447  1.0000
  H   H75       1.0  0.27150  0.76439  0.03116  1.0000
  H   H76       1.0  0.38111  0.96762  0.19908  1.0000
  N   N6        1.0  0.10723  0.96436  0.08075  1.0000
  H   H77       1.0  0.13641  0.93321  0.12454  1.0000
  H   H78       1.0  0.11576  0.86291  0.09695  1.0000
  H   H79       1.0  0.05452  0.53153  0.31390  1.0000
  Fe  Fe7       1.0  0.33973  0.95924  0.03603  1.0000
  H   H80       1.0  0.17158  0.73548  0.07781  1.0000
  C   C57       1.0  0.18344  0.80364  0.05210  1.0000
  C   C58       1.0  0.17156  0.83021  0.02440  1.0000
  H   H81       1.0  0.28067  0.85262  0.01608  1.0000
  C   C59       1.0  0.11995  0.76172  0.00517  1.0000
  C   C60       1.0  0.13102  0.73556  0.03320  1.0000
  C   C61       1.0  0.16277  0.75636  0.05643  1.0000
  H   H82       1.0  0.18636  0.86693  0.02093  1.0000
  C   C62       1.0  0.03366  0.53994  0.29238  1.0000
  H   H83       1.0  0.11576  0.69900  0.03673  1.0000
  C   C63       1.0  0.00876  0.51824  0.23747  1.0000
  H   H84       1.0  0.34843  0.74629  0.04719  1.0000
  C   C64       1.0  0.45295  0.95808  0.17863  1.0000
  Fe  Fe8       1.0  0.36220  0.95091  0.10827  1.0000
  H   H85       1.0  0.06716  0.79509  0.07634  1.0000
  H   H86       1.0  0.17436  0.92408  0.08951  1.0000
  C   C65       1.0  0.02140  0.84044  0.04650  1.0000
  H   H87       1.0  0.29687  0.71669  0.00567  1.0000
  S   S15       1.0  0.25774  0.95870  0.04470  1.0000
  C   C66       1.0  0.42013  0.96660  0.20383  1.0000
  C   C67       1.0  0.03769  0.92847  0.04830  1.0000
  H   H88       1.0  0.48644  0.82029  0.05072  1.0000
  C   C68       1.0  0.37325  0.77172  0.03557  1.0000
  C   C69       1.0  0.07724  0.92155  0.07015  1.0000
  C   C70       1.0  0.28004  0.75420  0.00593  1.0000
  C   C71       1.0  0.28626  0.83955  0.99103  1.0000
  C   C72       1.0  0.14913  0.95039  0.10178  1.0000
  C   C73       1.0  0.02619  0.51387  0.18042  1.0000
  C   C74       1.0  0.08650  0.87223  0.08047  1.0000
  C   C75       1.0  0.48859  0.97003  0.24242  1.0000
  C   C76       1.0  0.43791  0.97278  0.23544  1.0000
  H   H89       1.0  0.42663  0.76099  0.07325  1.0000
  C   C77       1.0  0.45219  0.81310  0.03823  1.0000
  H   H90       1.0  0.02794  0.96492  0.03980  1.0000
  H   H91       1.0  0.46340  0.97244  0.00869  1.0000
  C   C78       1.0  0.36076  0.79718  0.00681  1.0000
  S   S16       1.0  0.43324  0.95048  0.13807  1.0000
  H   H92       1.0  0.00116  0.80921  0.03677  1.0000
  C   C79       1.0  0.44132  0.83817  0.00994  1.0000
  C   C80       1.0  0.03720  0.50915  0.26554  1.0000
  C   C81       1.0  0.41837  0.77976  0.05090  1.0000
  C   C82       1.0  0.00152  0.58001  0.29238  1.0000
  C   C83       1.0  0.05875  0.83253  0.06875  1.0000
  C   C84       1.0  0.14048  0.80913  0.00097  1.0000
  H   H93       1.0  0.14839  0.96364  0.03680  1.0000
  H   H94       1.0  0.41217  0.97900  0.25473  1.0000
  C   C85       1.0  0.01055  0.88838  0.03652  1.0000
  H   H95       1.0  0.05926  0.98166  0.12012  1.0000
  H   H96       1.0  0.46712  0.86497  0.00045  1.0000
  H   H97       1.0  0.24379  0.75124  0.99350  1.0000
  H   H98       1.0  0.00025  0.54409  0.17407  1.0000
  C   C86       1.0  0.39643  0.83036  0.99439  1.0000
  H   H99       1.0  0.17158  0.98319  0.10871  1.0000
  C   C87       1.0  0.12788  0.99001  0.05233  1.0000
  H   H100      1.0  0.02433  0.49854  0.04623  1.0000
  N   N7        1.0  0.31254  0.79150  0.99061  1.0000
  H   H101      1.0  0.99751  0.60237  0.31385  1.0000
  H   H102      1.0  0.15925  0.62182  0.53907  1.0000
  S   S17       1.0  0.37946  0.93041  0.50694  1.0000
  C   C88       1.0  0.44908  0.92861  0.45909  1.0000
  H   H103      1.0  0.10868  0.55341  0.60014  1.0000
  H   H104      1.0  0.22121  0.68527  0.54888  1.0000
  H   H105      1.0  0.03707  0.96999  0.54684  1.0000
  H   H106      1.0  0.00021  0.58134  0.58557  1.0000
  H   H107      1.0  0.12404  0.54961  0.55838  1.0000
  C   C89       1.0  0.43251  0.95354  0.48669  1.0000
  H   H108      1.0  0.07146  0.68448  0.61616  1.0000
  S   S18       1.0  0.31768  0.87857  0.58271  1.0000
  Fe  Fe9       1.0  0.23800  0.90138  0.57988  1.0000
  S   S19       1.0  0.16573  0.85726  0.57470  1.0000
  Fe  Fe10      1.0  0.32579  0.93083  0.62469  1.0000
  Fe  Fe11      1.0  0.01470  0.65825  0.46553  1.0000
  S   S20       1.0  0.09106  0.69257  0.47438  1.0000
  H   H109      1.0  0.02381  0.58532  0.53177  1.0000
  S   S21       1.0  0.00356  0.57495  0.46337  1.0000
  H   H110      1.0  0.04958  0.92864  0.58024  1.0000
  C   C90       1.0  0.14504  0.81374  0.54521  1.0000
  C   C91       1.0  0.17585  0.79522  0.52120  1.0000
  C   C92       1.0  0.15852  0.75870  0.49964  1.0000
  C   C93       1.0  0.11006  0.74042  0.50144  1.0000
  C   C94       1.0  0.07899  0.75956  0.52514  1.0000
  C   C95       1.0  0.09645  0.79576  0.54688  1.0000
  H   H111      1.0  0.21332  0.80836  0.51955  1.0000
  H   H112      1.0  0.18298  0.74429  0.48149  1.0000
  H   H113      1.0  0.04165  0.74616  0.52692  1.0000
  H   H114      1.0  0.07223  0.80948  0.56536  1.0000
  S   S22       1.0  0.24453  0.94752  0.62492  1.0000
  N   N8        1.0  0.07185  0.60704  0.57054  1.0000
  C   C96       1.0  0.02766  0.61076  0.59130  1.0000
  C   C97       1.0  0.05483  0.61108  0.53689  1.0000
  C   C98       1.0  0.09365  0.55729  0.57544  1.0000
  C   C99       1.0  0.10933  0.64556  0.57703  1.0000
  C   C100      1.0  0.10375  0.68217  0.60130  1.0000
  C   C101      1.0  0.15304  0.64747  0.55853  1.0000
  H   H115      1.0  0.46490  0.79893  0.49591  1.0000
  C   C102      1.0  0.13991  0.71815  0.60651  1.0000
  H   H116      1.0  0.37646  0.95853  0.35812  1.0000
  H   H117      1.0  0.04211  0.64934  0.53159  1.0000
  H   H118      1.0  0.00821  0.64660  0.58760  1.0000
  H   H119      1.0  0.30385  0.95502  0.44876  1.0000
  H   H120      1.0  0.13454  0.74677  0.62439  1.0000
  C   C103      1.0  0.33708  0.95340  0.40194  1.0000
  H   H121      1.0  0.08412  0.60249  0.51920  1.0000
  H   H122      1.0  0.10647  0.95623  0.62408  1.0000
  C   C104      1.0  0.06502  0.95847  0.56485  1.0000
  H   H123      1.0  0.42972  0.89593  0.45101  1.0000
  Fe  Fe12      1.0  0.33381  0.94610  0.55231  1.0000
  C   C105      1.0  0.18891  0.68354  0.56401  1.0000
  S   S23       1.0  0.25332  0.96597  0.54761  1.0000
  C   C106      1.0  0.18239  0.71876  0.58797  1.0000
  H   H124      1.0  0.03724  0.60638  0.61705  1.0000
  H   H125      1.0  0.09568  0.94091  0.55119  1.0000
  H   H126      1.0  0.31696  0.92074  0.39444  1.0000
  C   C107      1.0  0.32927  0.97284  0.43241  1.0000
  H   H127      1.0  0.20948  0.74776  0.59143  1.0000
  C   C108      1.0  0.12161  0.98228  0.60597  1.0000
  C   C109      1.0  0.37140  0.97522  0.38143  1.0000
  H   H128      1.0  0.06600  0.52739  0.57178  1.0000
  H   H129      1.0  0.45754  0.96871  0.34753  1.0000
  H   H130      1.0  0.15048  0.96205  0.59236  1.0000
  H   H131      1.0  0.46667  0.86806  0.53447  1.0000
  H   H132      1.0  0.44097  0.97366  0.65415  1.0000
  C   C110      1.0  0.41542  0.92641  0.69207  1.0000
  H   H133      1.0  0.47724  0.90733  0.76287  1.0000
  S   S24       1.0  0.03235  0.58971  0.97260  1.0000
  C   C111      1.0  0.42618  0.90797  0.72287  1.0000
  H   H134      1.0  0.47487  0.95346  0.89033  1.0000
  C   C112      1.0  0.44859  0.95922  0.67782  1.0000
  H   H135      1.0  0.39366  0.94937  0.91752  1.0000
  H   H136      1.0  0.30662  0.86912  0.97818  1.0000
  C   C113      1.0  0.31985  0.77619  0.95679  1.0000
  H   H137      1.0  0.40083  0.88253  0.73414  1.0000
  C   C114      1.0  0.42660  0.95501  0.93162  1.0000
  C   C115      1.0  0.42268  0.96059  0.96511  1.0000
  C   C116      1.0  0.46951  0.92198  0.73927  1.0000
  C   C117      1.0  0.00103  0.50452  0.75429  1.0000
  S   S25       1.0  0.08304  0.73650  0.97387  1.0000
  C   C118      1.0  0.47268  0.95733  0.91609  1.0000
  S   S26       1.0  0.35905  0.90921  0.67330  1.0000
  S   S27       1.0  0.02397  0.53179  0.88856  1.0000
  H   H138      1.0  0.24956  0.83689  0.97931  1.0000
  Fe  Fe13      1.0  0.02692  0.67310  0.96927  1.0000
  H   H139      1.0  0.13201  0.82977  0.97945  1.0000
  H   H140      1.0  0.33886  0.80507  0.94245  1.0000
  H   H141      1.0  0.28414  0.76913  0.94445  1.0000
  H   H142      1.0  0.38923  0.85195  0.97307  1.0000
  H   H143      1.0  0.34213  0.74170  0.95538  1.0000
  S   S28       1.0  0.99270  0.67015  0.91991  1.0000
  H   H144      1.0  0.05316  0.52683  0.79057  1.0000
  Fe  Fe14      1.0  0.99161  0.58690  0.92518  1.0000
  H   H145      1.0  0.29920  0.97059  0.71492  1.0000
  S   S29       1.0  0.36334  0.95774  0.98322  1.0000
  C   C119      1.0  0.46568  0.96797  0.98296  1.0000
  C   C120      1.0  0.01647  0.53198  0.78090  1.0000
  H   H146      1.0  0.99609  0.58411  0.81745  1.0000
  S   S30       1.0  0.96436  0.24303  0.17122  1.0000
  S   S31       1.0  0.93146  0.33750  0.21638  1.0000
  Fe  Fe15      1.0  0.91863  0.25437  0.21610  1.0000
  S   S32       1.0  0.84077  0.22353  0.22459  1.0000
  C   C121      1.0  0.95273  0.43943  0.30621  1.0000
  C   C122      1.0  0.92819  0.36552  0.03849  1.0000
  H   H147      1.0  0.87970  0.48968  0.08665  1.0000
  C   C123      1.0  0.82823  0.11717  0.29474  1.0000
  H   H148      1.0  0.70884  0.12048  0.27081  1.0000
  C   C124      1.0  0.93361  0.44059  0.10771  1.0000
  C   C125      1.0  0.74764  0.12910  0.27174  1.0000
  C   C126      1.0  0.76762  0.16489  0.25070  1.0000
  C   C127      1.0  0.81804  0.17694  0.25130  1.0000
  C   C128      1.0  0.84831  0.15251  0.27343  1.0000
  H   H149      1.0  0.90802  0.42444  0.12451  1.0000
  H   H150      1.0  0.74373  0.18336  0.23373  1.0000
  H   H151      1.0  0.94541  0.44667  0.22441  1.0000
  H   H152      1.0  0.89409  0.36759  0.05183  1.0000
  H   H153      1.0  0.93342  0.42862  0.28468  1.0000
  H   H154      1.0  0.90224  0.41320  0.00172  1.0000
  H   H155      1.0  0.96368  0.31932  0.07355  1.0000
  H   H156      1.0  0.88716  0.16087  0.27414  1.0000
  C   C129      1.0  0.96736  0.33830  0.05077  1.0000
  H   H157      1.0  0.85206  0.09892  0.31182  1.0000
  C   C130      1.0  0.77778  0.10502  0.29407  1.0000
  H   H158      1.0  0.87962  0.28243  0.27525  1.0000
  H   H159      1.0  0.84481  0.33531  0.28638  1.0000
  C   C131      1.0  0.87827  0.31377  0.29255  1.0000
  H   H160      1.0  0.91076  0.33775  0.28798  1.0000
  H   H161      1.0  0.96016  0.43820  0.18271  1.0000
  C   C132      1.0  0.93336  0.39164  0.00979  1.0000
  C   C133      1.0  0.96011  0.46551  0.20274  1.0000
  C   C134      1.0  0.91760  0.47757  0.08607  1.0000
  H   H162      1.0  0.83233  0.23265  0.31595  1.0000
  C   C135      1.0  0.97821  0.39127  0.99243  1.0000
  Fe  Fe16      1.0  0.98302  0.32470  0.17476  1.0000
  S   S33       1.0  0.98085  0.23779  0.24966  1.0000
  C   C136      1.0  0.98234  0.42401  0.10703  1.0000
  H   H163      1.0  0.91929  0.23047  0.31339  1.0000
  C   C137      1.0  0.87853  0.42323  0.38904  1.0000
  H   H164      1.0  0.51849  0.04556  0.48743  1.0000
  C   C138      1.0  0.91129  0.48075  0.59060  1.0000
  H   H165      1.0  0.90530  0.42721  0.62913  1.0000
  H   H166      1.0  0.94772  0.39650  0.40656  1.0000
  S   S34       1.0  0.56755  0.01187  0.43041  1.0000
  C   C139      1.0  0.97052  0.41493  0.60135  1.0000
  H   H167      1.0  0.50226  0.01617  0.34489  1.0000
  C   C140      1.0  0.91776  0.34818  0.37024  1.0000
  C   C141      1.0  0.97009  0.07409  0.64030  1.0000
  C   C142      1.0  0.91717  0.38952  0.39043  1.0000
  C   C143      1.0  0.98094  0.47121  0.55543  1.0000
  S   S35       1.0  0.60334  0.04120  0.33900  1.0000
  H   H168      1.0  0.94974  0.32470  0.37190  1.0000
  H   H169      1.0  0.79902  0.28690  0.32586  1.0000
  C   C144      1.0  0.83988  0.37412  0.34752  1.0000
  C   C145      1.0  0.93614  0.48044  0.32426  1.0000
  H   H170      1.0  0.81048  0.44248  0.36627  1.0000
  C   C146      1.0  0.92707  0.43986  0.60912  1.0000
  C   C147      1.0  0.83997  0.41557  0.36762  1.0000
  H   H171      1.0  0.80942  0.37011  0.33107  1.0000
  C   C148      1.0  0.87882  0.33909  0.34817  1.0000
  C   C149      1.0  0.92119  0.26263  0.33009  1.0000
  H   H172      1.0  0.92319  0.24722  0.35477  1.0000
  Fe  Fe17      1.0  0.68218  0.01778  0.33081  1.0000
  H   H173      1.0  0.87925  0.45615  0.40396  1.0000
  C   C150      1.0  0.95735  0.03437  0.62060  1.0000
  H   H174      1.0  0.95634  0.28210  0.32459  1.0000
  N   N9        1.0  0.87821  0.29605  0.32615  1.0000
  C   C151      1.0  0.49931  0.01272  0.47942  1.0000
  C   C152      1.0  0.83319  0.26616  0.33153  1.0000
  H   H175      1.0  0.83080  0.25358  0.35688  1.0000
  H   H176      1.0  0.91931  0.02253  0.61940  1.0000
  S   S36       1.0  0.75476  0.06040  0.32208  1.0000
  H   H177      1.0  0.49136  0.09634  0.36610  1.0000
  C   C153      1.0  0.97137  0.41636  0.81363  1.0000
  H   H178      1.0  0.64164  0.02785  0.74198  1.0000
  H   H179      1.0  0.56990  0.08449  0.75658  1.0000
  S   S37       1.0  0.74909  0.06761  0.82089  1.0000
  S   S38       1.0  0.94964  0.37399  0.78383  1.0000
  H   H180      1.0  0.67382  0.15403  0.67703  1.0000
  H   H181      1.0  0.59076  0.12720  0.69167  1.0000
  S   S39       1.0  0.91599  0.31714  0.70505  1.0000
  Fe  Fe18      1.0  0.92472  0.23401  0.70792  1.0000
  S   S40       1.0  0.86467  0.17407  0.70630  1.0000
  H   H182      1.0  0.69494  0.05414  0.72380  1.0000
  C   C154      1.0  0.72687  0.20635  0.75620  1.0000
  C   C155      1.0  0.78509  0.09363  0.78929  1.0000
  C   C156      1.0  0.78594  0.07348  0.75840  1.0000
  C   C157      1.0  0.81107  0.09810  0.73345  1.0000
  C   C158      1.0  0.83756  0.14202  0.73927  1.0000
  C   C159      1.0  0.83945  0.16032  0.77065  1.0000
  C   C160      1.0  0.81311  0.13645  0.79540  1.0000
  H   H183      1.0  0.76693  0.03920  0.75362  1.0000
  H   H184      1.0  0.80984  0.08320  0.70939  1.0000
  H   H185      1.0  0.85975  0.19390  0.77563  1.0000
  H   H186      1.0  0.81350  0.15209  0.81928  1.0000
  C   C161      1.0  0.66483  0.06152  0.74115  1.0000
  C   C162      1.0  0.72236  0.20524  0.69854  1.0000
  H   H187      1.0  0.68421  0.15336  0.78119  1.0000
  H   H188      1.0  0.74380  0.22016  0.77800  1.0000
  N   N10       1.0  0.63630  0.10573  0.73167  1.0000
  S   S41       1.0  0.97952  0.23694  0.74797  1.0000
  H   H189      1.0  0.97920  0.41663  0.72091  1.0000
  H   H190      1.0  0.84000  0.01939  0.83571  1.0000
  C   C163      1.0  0.67051  0.14825  0.72956  1.0000
  C   C164      1.0  0.69212  0.16834  0.75774  1.0000
  H   H191      1.0  0.85740  0.48100  0.72523  1.0000
  S   S42       1.0  0.60829  0.02148  0.82590  1.0000
  H   H192      1.0  0.90804  0.40818  0.94654  1.0000
  H   H193      1.0  0.77120  0.25203  0.72554  1.0000
  H   H194      1.0  0.68145  0.06584  0.76536  1.0000
  N   N11       1.0  0.98293  0.42019  0.96244  1.0000
  C   C165      1.0  0.93691  0.44516  0.83062  1.0000
  H   H195      1.0  0.51708  0.99875  0.68293  1.0000
  C   C166      1.0  0.95202  0.48007  0.85391  1.0000
  H   H196      1.0  0.61259  0.11635  0.78089  1.0000
  H   H197      1.0  0.95606  0.42253  0.68097  1.0000
  C   C167      1.0  0.94654  0.40255  0.93847  1.0000
  C   C168      1.0  0.61086  0.09433  0.70096  1.0000
  C   C169      1.0  0.74232  0.22442  0.72667  1.0000
  C   C170      1.0  0.68683  0.16784  0.69977  1.0000
  C   C171      1.0  0.59766  0.11488  0.75611  1.0000
  H   H198      1.0  0.57804  0.15023  0.75131  1.0000
  H   H199      1.0  0.89817  0.44082  0.82544  1.0000
  H   H200      1.0  0.95015  0.42275  0.91528  1.0000
  H   H201      1.0  0.63691  0.08086  0.68236  1.0000
  H   H202      1.0  0.89280  0.43163  0.74229  1.0000
  H   H203      1.0  0.58349  0.06389  0.70386  1.0000
  H   H204      1.0  0.87664  0.43091  0.70062  1.0000
  H   H205      1.0  0.73576  0.21850  0.67564  1.0000
  C   C172      1.0  0.88849  0.45543  0.72068  1.0000
  S   S43       1.0  0.98208  0.23410  0.66876  1.0000
  Fe  Fe19      1.0  0.68977  0.00707  0.82232  1.0000
  Fe  Fe20      1.0  0.97896  0.31779  0.67000  1.0000
  H   H206      1.0  0.93492  0.48011  0.97720  1.0000
  H   H207      1.0  0.95149  0.36240  0.93344  1.0000
  H   H208      1.0  0.89508  0.99900  0.85462  1.0000
  C   C173      1.0  0.97066  0.44399  0.70173  1.0000
  Fe  Fe21      1.0  0.97432  0.32027  0.74386  1.0000
  C   C174      1.0  0.97326  0.47311  0.96924  1.0000
  N   N12       1.0  0.93508  0.48170  0.71328  1.0000
  H   H209      1.0  0.94222  0.09307  0.65430  1.0000
  H   H210      1.0  0.74244  0.74488  0.01051  1.0000
  S   S44       1.0  0.66090  0.95191  0.30028  1.0000
  C   C175      1.0  0.85916  0.94272  0.30277  1.0000
  Fe  Fe22      1.0  0.95666  0.59162  0.99450  1.0000
  H   H211      1.0  0.88895  0.92294  0.28977  1.0000
  S   S45       1.0  0.95397  0.67523  0.99433  1.0000
  H   H212      1.0  0.56037  0.95933  0.22209  1.0000
  S   S46       1.0  0.92680  0.54454  0.03635  1.0000
  C   C176      1.0  0.52135  0.96145  0.21724  1.0000
  H   H213      1.0  0.83746  0.96446  0.28494  1.0000
  S   S47       1.0  0.50848  0.97824  0.28289  1.0000
  H   H214      1.0  0.94838  0.62135  0.26543  1.0000
  Fe  Fe23      1.0  0.58179  0.97290  0.31068  1.0000
  H   H215      1.0  0.77858  0.89911  0.28010  1.0000
  H   H216      1.0  0.68916  0.81496  0.99758  1.0000
  H   H217      1.0  0.87668  0.97055  0.31876  1.0000
  C   C177      1.0  0.80130  0.87635  0.29677  1.0000
  H   H218      1.0  0.90406  0.50069  0.31633  1.0000
  C   C178      1.0  0.50359  0.95567  0.18560  1.0000
  H   H219      1.0  0.82736  0.85477  0.28176  1.0000
  C   C179      1.0  0.97361  0.59031  0.26517  1.0000
  N   N13       1.0  0.82761  0.90752  0.32065  1.0000
  H   H220      1.0  0.77531  0.85032  0.30869  1.0000
  H   H221      1.0  0.93345  0.49471  0.19574  1.0000
  C   C180      1.0  0.97730  0.56018  0.23800  1.0000
  H   H222      1.0  0.52938  0.94907  0.16636  1.0000
  C   C181      1.0  0.94989  0.49873  0.06349  1.0000
  H   H223      1.0  0.98126  0.89430  0.01927  1.0000
  H   H224      1.0  0.95461  0.56942  0.21758  1.0000
  Fe  Fe24      1.0  0.65965  0.90963  0.34710  1.0000
  S   S48       1.0  0.69385  0.83256  0.35295  1.0000
  H   H225      1.0  0.93498  0.80483  0.40723  1.0000
  S   S49       1.0  0.57872  0.92355  0.35440  1.0000
  S   S50       1.0  0.88543  0.59952  0.45303  1.0000
  Fe  Fe25      1.0  0.90496  0.68060  0.45361  1.0000
  S   S51       1.0  0.85603  0.75021  0.45138  1.0000
  C   C182      1.0  0.88439  0.90323  0.36828  1.0000
  C   C183      1.0  0.73985  0.81082  0.38014  1.0000
  C   C184      1.0  0.75641  0.76161  0.37758  1.0000
  C   C185      1.0  0.79209  0.74242  0.39890  1.0000
  C   C186      1.0  0.81151  0.77221  0.42330  1.0000
  C   C187      1.0  0.79488  0.82143  0.42585  1.0000
  C   C188      1.0  0.75954  0.84073  0.40438  1.0000
  H   H226      1.0  0.74146  0.73798  0.35902  1.0000
  H   H227      1.0  0.80432  0.70449  0.39662  1.0000
  H   H228      1.0  0.80978  0.84489  0.44451  1.0000
  H   H229      1.0  0.74745  0.87862  0.40685  1.0000
  C   C189      1.0  0.57699  0.88731  0.49827  1.0000
  S   S52       1.0  0.91699  0.54990  0.54198  1.0000
  H   H230      1.0  0.60949  0.76449  0.44214  1.0000
  C   C190      1.0  0.85779  0.87869  0.34362  1.0000
  H   H231      1.0  0.93131  0.89616  0.40985  1.0000
  H   H232      1.0  0.65570  0.88336  0.41618  1.0000
  Fe  Fe26      1.0  0.93777  0.58944  0.49484  1.0000
  H   H233      1.0  0.80609  0.96493  0.35423  1.0000
  H   H234      1.0  0.65942  0.79776  0.48768  1.0000
  H   H235      1.0  0.63924  0.91965  0.45016  1.0000
  H   H236      1.0  0.88321  0.94303  0.37066  1.0000
  H   H237      1.0  0.67471  0.86236  0.48854  1.0000
  C   C191      1.0  0.88956  0.80024  0.36513  1.0000
  C   C192      1.0  0.62714  0.88807  0.43500  1.0000
  S   S53       1.0  0.95118  0.67172  0.49835  1.0000
  H   H238      1.0  0.59255  0.89978  0.42295  1.0000
  N   N14       1.0  0.61946  0.84189  0.45355  1.0000
  S   S54       1.0  0.93838  0.54863  0.37358  1.0000
  C   C193      1.0  0.66445  0.83121  0.47246  1.0000
  C   C194      1.0  0.61294  0.80100  0.43005  1.0000
  C   C195      1.0  0.57725  0.84813  0.47557  1.0000
  C   C196      1.0  0.53579  0.81599  0.47544  1.0000
  H   H239      1.0  0.76706  0.91134  0.35335  1.0000
  H   H240      1.0  0.64509  0.79770  0.41363  1.0000
  C   C197      1.0  0.78999  0.93613  0.33835  1.0000
  H   H241      1.0  0.53232  0.78539  0.45897  1.0000
  S   S55       1.0  0.96975  0.67151  0.42071  1.0000
  C   C198      1.0  0.91463  0.82544  0.38923  1.0000
  H   H242      1.0  0.60688  0.91357  0.49958  1.0000
  H   H243      1.0  0.53759  0.92503  0.53589  1.0000
  H   H244      1.0  0.98084  0.97966  0.58767  1.0000
  H   H245      1.0  0.58028  0.80735  0.41443  1.0000
  C   C199      1.0  0.49770  0.86193  0.51864  1.0000
  Fe  Fe27      1.0  0.95244  0.58948  0.42149  1.0000
  S   S56       1.0  0.68295  0.97402  0.37715  1.0000
  H   H246      1.0  0.69675  0.82423  0.45673  1.0000
  C   C200      1.0  0.96073  0.49571  0.35238  1.0000
  C   C201      1.0  0.91217  0.87685  0.39077  1.0000
  H   H247      1.0  0.76492  0.95614  0.32175  1.0000
  C   C202      1.0  0.53770  0.89403  0.51937  1.0000
  C   C203      1.0  0.49671  0.82309  0.49672  1.0000
  C   C204      1.0  0.86123  0.82615  0.34269  1.0000
  H   H248      1.0  0.50298  0.92477  0.42123  1.0000
  H   H249      1.0  0.89065  0.76010  0.36469  1.0000
  C   C205      1.0  0.51579  0.98782  0.45177  1.0000
  C   C206      1.0  0.49063  0.94520  0.44196  1.0000
  Fe  Fe28      1.0  0.60208  0.99049  0.38207  1.0000
  C   C207      1.0  0.93798  0.49673  0.56358  1.0000
  H   H250      1.0  0.87769  0.49976  0.59695  1.0000
  H   H251      1.0  0.49209  0.98643  0.38238  1.0000
  H   H252      1.0  0.84147  0.80395  0.32546  1.0000
  Fe  Fe29      1.0  0.67630  0.89480  0.82844  1.0000
  S   S57       1.0  0.72128  0.82295  0.82924  1.0000
  Fe  Fe30      1.0  0.59954  0.95766  0.79120  1.0000
  C   C208      1.0  0.88007  0.85171  0.82969  1.0000
  S   S58       1.0  0.68167  0.94646  0.78612  1.0000
  S   S59       1.0  0.59313  0.89973  0.83025  1.0000
  S   S60       1.0  0.91584  0.58653  0.94720  1.0000
  Fe  Fe31      1.0  0.91969  0.67028  0.94509  1.0000
  S   S61       1.0  0.86212  0.73193  0.93770  1.0000
  C   C209      1.0  0.51558  0.96545  0.93389  1.0000
  Fe  Fe32      1.0  0.60560  0.96316  0.86465  1.0000
  C   C210      1.0  0.76267  0.79937  0.85879  1.0000
  C   C211      1.0  0.78384  0.75228  0.85442  1.0000
  C   C212      1.0  0.81543  0.73148  0.87777  1.0000
  C   C213      1.0  0.82573  0.75736  0.90608  1.0000
  C   C214      1.0  0.80499  0.80471  0.91023  1.0000
  C   C215      1.0  0.77427  0.82586  0.88659  1.0000
  H   H253      1.0  0.77534  0.73146  0.83295  1.0000
  H   H254      1.0  0.83088  0.69503  0.87422  1.0000
  H   H255      1.0  0.81278  0.82512  0.93196  1.0000
  H   H256      1.0  0.75930  0.86243  0.89000  1.0000
  C   C216      1.0  0.80371  0.93037  0.82173  1.0000
  H   H257      1.0  0.60967  0.84138  0.98505  1.0000
  S   S62       1.0  0.55741  0.97519  0.74459  1.0000
  S   S63       1.0  0.68828  0.95486  0.86442  1.0000
  C   C217      1.0  0.67630  0.88406  0.94677  1.0000
  C   C218      1.0  0.73775  0.71249  0.96369  1.0000
  H   H258      1.0  0.66539  0.84199  0.88917  1.0000
  H   H259      1.0  0.89752  0.54483  0.69290  1.0000
  H   H260      1.0  0.79938  0.89996  0.80398  1.0000
  C   C219      1.0  0.68823  0.75668  0.92481  1.0000
  N   N15       1.0  0.85587  0.94159  0.82912  1.0000
  H   H261      1.0  0.72776  0.68922  0.91497  1.0000
  C   C220      1.0  0.90106  0.81031  0.84443  1.0000
  H   H262      1.0  0.67590  0.75813  0.90020  1.0000
  H   H263      1.0  0.76265  0.68238  0.96941  1.0000
  H   H264      1.0  0.87914  0.92118  0.78131  1.0000
  C   C221      1.0  0.92604  0.51699  0.68673  1.0000
  C   C222      1.0  0.87874  0.89845  0.84524  1.0000
  C   C223      1.0  0.51173  0.97037  0.96743  1.0000
  C   C224      1.0  0.60193  0.83930  0.95893  1.0000
  C   C225      1.0  0.92118  0.81409  0.87504  1.0000
  H   H265      1.0  0.57857  0.87206  0.95303  1.0000
  C   C226      1.0  0.71807  0.71647  0.93298  1.0000
  C   C227      1.0  0.95254  0.50935  0.74181  1.0000
  H   H266      1.0  0.68287  0.88918  0.97283  1.0000
  C   C228      1.0  0.49175  0.97346  0.69428  1.0000
  H   H267      1.0  0.83533  0.98323  0.87121  1.0000
  C   C229      1.0  0.92028  0.85925  0.89108  1.0000
  H   H268      1.0  0.65704  0.91815  0.93861  1.0000
  H   H269      1.0  0.92502  0.50238  0.86625  1.0000
  H   H270      1.0  0.78382  0.91858  0.84368  1.0000
  H   H271      1.0  0.90049  0.77469  0.83248  1.0000
  H   H272      1.0  0.86392  0.84653  0.80623  1.0000
  H   H273      1.0  0.96022  0.53740  0.68044  1.0000
  C   C230      1.0  0.63280  0.84095  0.90523  1.0000
  H   H274      1.0  0.91171  0.59531  0.79647  1.0000
  H   H275      1.0  0.60922  0.80905  0.89828  1.0000
  C   C231      1.0  0.93673  0.57032  0.78436  1.0000
  N   N16       1.0  0.64754  0.83868  0.93951  1.0000
  C   C232      1.0  0.67706  0.79430  0.94756  1.0000
  H   H276      1.0  0.91306  0.49773  0.66471  1.0000
  H   H277      1.0  0.88398  0.54984  0.74915  1.0000
  C   C233      1.0  0.69643  0.78819  0.97895  1.0000
  C   C234      1.0  0.50263  0.95488  0.72505  1.0000
  C   C235      1.0  0.89948  0.90101  0.87656  1.0000
  C   C236      1.0  0.98431  0.56440  0.79609  1.0000
  H   H278      1.0  0.93614  0.78156  0.88682  1.0000
  H   H279      1.0  0.61091  0.87472  0.89992  1.0000
  H   H280      1.0  0.89959  0.93457  0.89056  1.0000
  H   H281      1.0  0.71269  0.88318  0.93476  1.0000
  C   C237      1.0  0.92108  0.54364  0.75746  1.0000
  H   H282      1.0  0.92170  0.95934  0.80310  1.0000
  H   H283      1.0  0.93504  0.86142  0.91521  1.0000
  H   H284      1.0  0.78427  0.96313  0.81163  1.0000
  H   H285      1.0  0.57958  0.80546  0.95453  1.0000
  C   C238      1.0  0.88193  0.95222  0.79869  1.0000
  S   S64       1.0  0.57492  0.96949  0.91585  1.0000
  H   H286      1.0  0.54455  0.97684  0.98150  1.0000
  H   H287      1.0  0.97914  0.49646  0.94763  1.0000
  H   H288      1.0  0.86640  0.98544  0.78641  1.0000
  C   C239      1.0  0.85684  0.98756  0.84870  1.0000
  C   C240      1.0  0.72664  0.74805  0.98672  1.0000
