data_image0
_chemical_formula_structural       H2FeSFeS3C4H2CH2CHCHC3H3CH2C2HC4HNH5C2HCHFeSFeHSCH2CH3C3HNCHCHCHCHCH2SHCSC2H2CH4C2HCH5CHSHC7H3SH2NHC2HFeC2H6C2HC2H2C2HC2HFeS2FeSCFeSFeS2CHCNC6H5C2H2C2H5CHC2NH2C4H3CH3SCH2C2SH2S2HSFeC6SH3CH2C3FeHSH2C3HCHSCSFeNH2FeCHC6H7CH5C2H2CH3NCH3SCSC3H2NSFeSHC6H5SCHCHNHCHCHC2H3CH2CH2CFeSCHFeSFeS2FeSFeS3C3H3C6H4C3HCHC6H2C3H5CH2CHSH4NH2CS2FeSFeHFeSFeS3CH5C6HC3H8FeHC2H3NC3HSCHCHC2H4CH3CSH3CHNCHCH3CHC2H4
_chemical_formula_sum              "H216 Fe24 S48 C180 N12"
_cell_length_a       29.9385
_cell_length_b       30.031
_cell_length_c       31.6181
_cell_angle_alpha    90.4434
_cell_angle_beta     90.6116
_cell_angle_gamma    120.724

_space_group_name_H-M_alt    "P 1"
_space_group_IT_number       1

loop_
  _space_group_symop_operation_xyz
  'x, y, z'

loop_
  _atom_site_type_symbol
  _atom_site_label
  _atom_site_symmetry_multiplicity
  _atom_site_fract_x
  _atom_site_fract_y
  _atom_site_fract_z
  _atom_site_occupancy
  H   H1        1.0  0.04154  0.44049  0.02974  1.0000
  H   H2        1.0  0.49542  0.04192  0.32438  1.0000
  Fe  Fe1       1.0  0.44283  0.20340  0.57102  1.0000
  S   S1        1.0  0.37972  0.13631  0.53110  1.0000
  Fe  Fe2       1.0  0.46951  0.30524  0.61766  1.0000
  S   S2        1.0  0.45408  0.37141  0.63134  1.0000
  S   S3        1.0  0.47431  0.28557  0.54936  1.0000
  S   S4        1.0  0.43191  0.22202  0.63825  1.0000
  C   C1        1.0  0.45894  0.01721  0.38591  1.0000
  C   C2        1.0  0.40351  0.05864  0.54181  1.0000
  C   C3        1.0  0.37087  0.07355  0.52278  1.0000
  C   C4        1.0  0.40429  0.37438  0.65943  1.0000
  H   H3        1.0  0.43615  0.08611  0.56126  1.0000
  H   H4        1.0  0.02470  0.50598  0.66524  1.0000
  C   C5        1.0  0.40517  0.42173  0.66139  1.0000
  H   H5        1.0  0.39907  0.34499  0.41639  1.0000
  H   H6        1.0  0.38691  0.33815  0.49394  1.0000
  C   C6        1.0  0.44702  0.03617  0.42290  1.0000
  H   H7        1.0  0.45150  0.10169  0.45561  1.0000
  C   C7        1.0  0.34716  0.08421  0.63329  1.0000
  H   H8        1.0  0.48573  0.40559  0.38735  1.0000
  C   C8        1.0  0.50068  0.10579  0.35854  1.0000
  C   C9        1.0  0.48027  0.40301  0.42132  1.0000
  C   C10       1.0  0.43156  0.36877  0.43759  1.0000
  H   H9        1.0  0.45942  0.39044  0.54220  1.0000
  H   H10       1.0  0.31405  0.05826  0.61192  1.0000
  H   H11       1.0  0.43574  0.45521  0.64577  1.0000
  C   C11       1.0  0.10814  0.49775  0.65046  1.0000
  H   H12       1.0  0.34037  0.11572  0.64367  1.0000
  H   H13       1.0  0.38256  0.10216  0.61365  1.0000
  C   C12       1.0  0.46673  0.39501  0.50865  1.0000
  C   C13       1.0  0.32913  0.03729  0.49706  1.0000
  H   H14       1.0  0.30376  0.04846  0.48200  1.0000
  C   C14       1.0  0.42478  0.36492  0.48119  1.0000
  C   C15       1.0  0.46158  0.08828  0.42727  1.0000
  C   C16       1.0  0.48848  0.12305  0.39525  1.0000
  C   C17       1.0  0.48598  0.05366  0.35373  1.0000
  H   H15       1.0  0.07426  0.47334  0.62934  1.0000
  N   N1        1.0  0.35362  0.05696  0.66961  1.0000
  H   H16       1.0  0.10628  0.47226  0.67668  1.0000
  H   H17       1.0  0.43709  0.03891  0.67975  1.0000
  H   H18       1.0  0.49955  0.16339  0.39884  1.0000
  H   H19       1.0  0.43534  0.11404  0.67594  1.0000
  H   H20       1.0  0.42606  0.01149  0.44888  1.0000
  C   C18       1.0  0.35887  0.01322  0.65398  1.0000
  C   C19       1.0  0.40375  0.00957  0.66209  1.0000
  H   H21       1.0  0.36317  0.29485  0.67867  1.0000
  C   C20       1.0  0.36446  0.33148  0.67982  1.0000
  H   H22       1.0  0.27050  0.01206  0.67860  1.0000
  Fe  Fe3       1.0  0.17068  0.46958  0.76497  1.0000
  S   S5        1.0  0.08440  0.44402  0.76547  1.0000
  Fe  Fe4       1.0  0.26198  0.45271  0.74428  1.0000
  H   H23       1.0  0.36937  0.40696  0.89527  1.0000
  S   S6        1.0  0.21488  0.44164  0.80281  1.0000
  C   C21       1.0  0.01112  0.44012  0.00911  1.0000
  H   H24       1.0  0.36164  0.38117  0.84294  1.0000
  H   H25       1.0  0.31199  0.43990  0.87777  1.0000
  C   C22       1.0  0.10168  0.45156  0.96061  1.0000
  H   H26       1.0  0.02446  0.35998  0.99622  1.0000
  H   H27       1.0  0.29540  0.30251  0.71735  1.0000
  H   H28       1.0  0.37441  0.43111  0.78193  1.0000
  C   C23       1.0  0.03722  0.39820  0.80010  1.0000
  C   C24       1.0  0.04715  0.36602  0.82525  1.0000
  C   C25       1.0  0.32672  0.38320  0.70347  1.0000
  H   H29       1.0  0.08464  0.36889  0.82405  1.0000
  N   N2        1.0  0.38395  0.46174  0.84562  1.0000
  C   C26       1.0  0.10100  0.48731  0.87957  1.0000
  H   H30       1.0  0.05216  0.50280  0.71459  1.0000
  C   C27       1.0  0.14779  0.47791  0.93792  1.0000
  H   H31       1.0  0.40589  0.07902  0.72374  1.0000
  C   C28       1.0  0.39927  0.09609  0.69494  1.0000
  H   H32       1.0  0.30375  0.41760  0.82409  1.0000
  C   C29       1.0  0.05361  0.44242  0.94336  1.0000
  H   H33       1.0  0.01590  0.30392  0.87021  1.0000
  C   C30       1.0  0.38532  0.41666  0.86289  1.0000
  H   H34       1.0  0.44018  0.47445  0.79773  1.0000
  H   H35       1.0  0.39451  0.12879  0.70584  1.0000
  S   S7        1.0  0.21237  0.47401  0.70455  1.0000
  H   H36       1.0  0.18418  0.48438  0.95138  1.0000
  C   C31       1.0  0.05462  0.46095  0.90189  1.0000
  S   S8        1.0  0.27794  0.38663  0.73271  1.0000
  C   C32       1.0  0.39998  0.46707  0.80072  1.0000
  C   C33       1.0  0.32958  0.45032  0.84598  1.0000
  H   H37       1.0  0.42585  0.42436  0.86435  1.0000
  H   H38       1.0  0.10387  0.43783  0.99158  1.0000
  C   C34       1.0  0.32604  0.33598  0.70174  1.0000
  H   H39       1.0  0.02003  0.45474  0.88553  1.0000
  H   H40       1.0  0.30361  0.06911  0.71081  1.0000
  H   H41       1.0  0.37359  0.47688  0.92998  1.0000
  H   H42       1.0  0.10084  0.50037  0.84771  1.0000
  C   C35       1.0  0.30725  0.03703  0.69666  1.0000
  C   C36       1.0  0.14740  0.49569  0.89748  1.0000
  H   H43       1.0  0.02156  0.48105  0.00446  1.0000
  C   C37       1.0  0.36669  0.42618  0.68325  1.0000
  H   H44       1.0  0.39710  0.49851  0.78488  1.0000
  H   H45       1.0  0.32768  0.48471  0.83613  1.0000
  H   H46       1.0  0.36786  0.46278  0.68430  1.0000
  H   H47       1.0  0.30931  0.01374  0.72304  1.0000
  H   H48       1.0  0.41387  0.70206  0.27341  1.0000
  C   C38       1.0  0.40527  0.67259  0.24809  1.0000
  H   H49       1.0  0.06390  0.71025  0.28613  1.0000
  S   S9        1.0  0.41789  0.77408  0.15881  1.0000
  H   H50       1.0  0.40921  0.59359  0.20851  1.0000
  C   C39       1.0  0.44993  0.64258  0.31426  1.0000
  C   C40       1.0  0.39981  0.79920  0.30003  1.0000
  C   C41       1.0  0.35649  0.77498  0.27283  1.0000
  C   C42       1.0  0.36291  0.76868  0.22951  1.0000
  C   C43       1.0  0.41257  0.78652  0.21293  1.0000
  C   C44       1.0  0.45597  0.81155  0.24003  1.0000
  C   C45       1.0  0.44955  0.81762  0.28339  1.0000
  H   H51       1.0  0.31801  0.76071  0.28519  1.0000
  H   H52       1.0  0.32909  0.74938  0.20877  1.0000
  H   H53       1.0  0.50578  0.97450  0.33872  1.0000
  S   S10       1.0  0.48520  0.71416  0.09784  1.0000
  H   H54       1.0  0.49445  0.82610  0.22761  1.0000
  H   H55       1.0  0.09309  0.85497  0.28087  1.0000
  N   N3        1.0  0.45188  0.66941  0.23764  1.0000
  H   H56       1.0  0.47227  0.63470  0.18657  1.0000
  C   C46       1.0  0.43799  0.63425  0.20025  1.0000
  C   C47       1.0  0.06943  0.55461  0.31500  1.0000
  H   H57       1.0  0.41898  0.64946  0.32236  1.0000
  Fe  Fe5       1.0  0.48995  0.78615  0.12456  1.0000
  C   C48       1.0  0.03053  0.55847  0.33532  1.0000
  C   C49       1.0  0.04533  0.69244  0.31546  1.0000
  H   H58       1.0  0.48333  0.83658  0.30417  1.0000
  H   H59       1.0  0.42115  0.64591  0.17397  1.0000
  H   H60       1.0  0.37245  0.63447  0.25799  1.0000
  H   H61       1.0  0.39100  0.68474  0.22031  1.0000
  H   H62       1.0  0.48091  0.73741  0.19947  1.0000
  H   H63       1.0  0.10900  0.57589  0.32741  1.0000
  C   C50       1.0  0.06650  0.81556  0.33968  1.0000
  C   C51       1.0  0.49367  0.72186  0.22578  1.0000
  H   H64       1.0  0.08806  0.52127  0.26283  1.0000
  C   C52       1.0  0.05749  0.52391  0.27859  1.0000
  C   C53       1.0  0.47077  0.65082  0.27290  1.0000
  H   H65       1.0  0.42155  0.95901  0.31348  1.0000
  H   H66       1.0  0.39024  0.89789  0.33884  1.0000
  C   C54       1.0  0.40467  0.93989  0.34393  1.0000
  C   C55       1.0  0.05945  0.82831  0.29890  1.0000
  H   H67       1.0  0.50564  0.74953  0.25302  1.0000
  C   C56       1.0  0.50988  0.61658  0.33948  1.0000
  C   C57       1.0  0.46927  0.62551  0.34687  1.0000
  H   H68       1.0  0.04809  0.52207  0.59470  1.0000
  Fe  Fe6       1.0  0.29192  0.83712  0.46265  1.0000
  S   S11       1.0  0.32989  0.78888  0.46150  1.0000
  S   S12       1.0  0.33897  0.90663  0.50773  1.0000
  Fe  Fe7       1.0  0.20818  0.76364  0.39769  1.0000
  S   S13       1.0  0.24237  0.71225  0.39217  1.0000
  C   C58       1.0  0.31800  0.97228  0.62986  1.0000
  Fe  Fe8       1.0  0.24973  0.71960  0.46341  1.0000
  S   S14       1.0  0.22457  0.64564  0.50028  1.0000
  Fe  Fe9       1.0  0.32000  0.78597  0.39075  1.0000
  S   S15       1.0  0.21103  0.76706  0.46926  1.0000
  S   S16       1.0  0.28615  0.83770  0.39162  1.0000
  C   C59       1.0  0.35110  0.97107  0.51120  1.0000
  H   H69       1.0  0.06054  0.57823  0.53492  1.0000
  C   C60       1.0  0.12829  0.64421  0.56180  1.0000
  N   N4        1.0  0.44274  0.96198  0.37961  1.0000
  C   C61       1.0  0.24877  0.64186  0.55085  1.0000
  C   C62       1.0  0.23092  0.59288  0.56863  1.0000
  C   C63       1.0  0.24753  0.58819  0.60940  1.0000
  C   C64       1.0  0.28154  0.63249  0.63314  1.0000
  C   C65       1.0  0.29980  0.68145  0.61523  1.0000
  C   C66       1.0  0.28373  0.68618  0.57424  1.0000
  H   H70       1.0  0.20417  0.55841  0.55067  1.0000
  H   H71       1.0  0.23445  0.55036  0.62234  1.0000
  H   H72       1.0  0.32641  0.71595  0.63323  1.0000
  H   H73       1.0  0.29787  0.72408  0.56094  1.0000
  H   H74       1.0  0.28313  0.97273  0.62157  1.0000
  C   C67       1.0  0.36616  0.92802  0.62332  1.0000
  C   C68       1.0  0.05140  0.68102  0.39043  1.0000
  H   H75       1.0  0.40739  0.88886  0.41219  1.0000
  H   H76       1.0  0.07428  0.68978  0.41931  1.0000
  C   C69       1.0  0.08696  0.59327  0.56195  1.0000
  C   C70       1.0  0.31939  0.98639  0.49109  1.0000
  H   H77       1.0  0.44429  0.94438  0.44565  1.0000
  H   H78       1.0  0.36930  0.89611  0.61049  1.0000
  H   H79       1.0  0.28668  0.95877  0.47175  1.0000
  H   H80       1.0  0.38132  0.92870  0.42512  1.0000
  H   H81       1.0  0.37020  0.94376  0.34998  1.0000
  C   C71       1.0  0.07586  0.70407  0.35266  1.0000
  H   H82       1.0  0.47739  0.91554  0.36669  1.0000
  C   C72       1.0  0.32174  0.93042  0.61491  1.0000
  C   C73       1.0  0.15756  0.63188  0.63004  1.0000
  N   N5        1.0  0.10867  0.54460  0.66658  1.0000
  H   H83       1.0  0.19620  0.70276  0.59491  1.0000
  H   H84       1.0  0.13441  0.66832  0.53457  1.0000
  C   C74       1.0  0.48833  0.95700  0.36946  1.0000
  C   C75       1.0  0.41803  0.92989  0.41733  1.0000
  C   C76       1.0  0.11595  0.57953  0.63112  1.0000
  C   C77       1.0  0.16313  0.66358  0.59592  1.0000
  H   H85       1.0  0.45285  0.61957  0.37819  1.0000
  H   H86       1.0  0.29082  0.90045  0.59529  1.0000
  H   H87       1.0  0.14383  0.50855  0.63236  1.0000
  C   C78       1.0  0.40703  0.96743  0.64690  1.0000
  H   H88       1.0  0.10538  0.83154  0.35302  1.0000
  H   H89       1.0  0.44176  0.96557  0.65293  1.0000
  H   H90       1.0  0.18745  0.64896  0.65439  1.0000
  S   S17       1.0  0.39403  0.80677  0.35500  1.0000
  C   C79       1.0  0.08053  0.56138  0.59617  1.0000
  H   H91       1.0  0.41868  0.99652  0.55146  1.0000
  H   H92       1.0  0.02958  0.77003  0.39420  1.0000
  C   C80       1.0  0.02364  0.78081  0.36288  1.0000
  C   C81       1.0  0.39352  0.00772  0.53614  1.0000
  S   S18       1.0  0.14338  0.75073  0.35097  1.0000
  H   H93       1.0  0.04010  0.58287  0.36340  1.0000
  H   H94       1.0  0.50290  0.63071  0.94448  1.0000
  S   S19       1.0  0.22547  0.55288  0.78335  1.0000
  S   S20       1.0  0.49832  0.73416  0.96847  1.0000
  H   H95       1.0  0.47090  0.55769  0.82293  1.0000
  S   S21       1.0  0.32248  0.53519  0.76127  1.0000
  Fe  Fe10      1.0  0.26984  0.55587  0.72531  1.0000
  C   C82       1.0  0.43986  0.68185  0.94683  1.0000
  C   C83       1.0  0.40050  0.64535  0.97234  1.0000
  C   C84       1.0  0.35595  0.60284  0.95368  1.0000
  C   C85       1.0  0.35019  0.59651  0.90943  1.0000
  C   C86       1.0  0.38930  0.63332  0.88392  1.0000
  C   C87       1.0  0.43392  0.67573  0.90257  1.0000
  S   S22       1.0  0.29430  0.54126  0.88768  1.0000
  H   H96       1.0  0.32588  0.57457  0.97366  1.0000
  H   H97       1.0  0.38543  0.62884  0.84986  1.0000
  H   H98       1.0  0.46425  0.70360  0.88257  1.0000
  C   C88       1.0  0.40662  0.50938  0.91564  1.0000
  H   H99       1.0  0.14338  0.54173  0.72589  1.0000
  H   H100      1.0  0.40463  0.64954  0.00641  1.0000
  C   C89       1.0  0.43755  0.55283  0.94138  1.0000
  C   C90       1.0  0.41725  0.50848  0.87207  1.0000
  C   C91       1.0  0.46041  0.55408  0.85580  1.0000
  Fe  Fe11      1.0  0.27280  0.52547  0.81749  1.0000
  H   H101      1.0  0.42792  0.55326  0.97429  1.0000
  S   S23       1.0  0.30129  0.62865  0.68552  1.0000
  H   H102      1.0  0.15191  0.60349  0.71452  1.0000
  H   H103      1.0  0.05691  0.56254  0.69899  1.0000
  C   C92       1.0  0.15010  0.56888  0.69974  1.0000
  C   C93       1.0  0.47979  0.59662  0.92459  1.0000
  C   C94       1.0  0.49106  0.59733  0.88190  1.0000
  H   H104      1.0  0.18314  0.51561  0.87983  1.0000
  C   C95       1.0  0.05840  0.52833  0.68713  1.0000
  H   H105      1.0  0.18891  0.58032  0.68683  1.0000
  S   S24       1.0  0.77419  0.47921  0.30849  1.0000
  C   C96       1.0  0.90335  0.44116  0.22710  1.0000
  S   S25       1.0  0.76293  0.42107  0.20044  1.0000
  Fe  Fe12      1.0  0.71011  0.49626  0.31536  1.0000
  N   N6        1.0  0.91242  0.47553  0.26432  1.0000
  H   H106      1.0  0.86220  0.42181  0.21545  1.0000
  H   H107      1.0  0.92739  0.46326  0.19977  1.0000
  Fe  Fe13      1.0  0.76785  0.48859  0.23846  1.0000
  C   C97       1.0  0.87430  0.44358  0.29692  1.0000
  H   H108      1.0  0.67846  0.30766  0.07922  1.0000
  C   C98       1.0  0.78587  0.41628  0.15013  1.0000
  C   C99       1.0  0.77134  0.36678  0.13413  1.0000
  C   C100      1.0  0.78857  0.36052  0.09447  1.0000
  C   C101      1.0  0.82141  0.40390  0.07066  1.0000
  C   C102      1.0  0.83665  0.45353  0.08692  1.0000
  C   C103      1.0  0.81866  0.45975  0.12634  1.0000
  H   H109      1.0  0.74639  0.33294  0.15252  1.0000
  H   H110      1.0  0.77701  0.32216  0.08256  1.0000
  H   H111      1.0  0.86215  0.48734  0.06873  1.0000
  H   H112      1.0  0.88327  0.41475  0.31017  1.0000
  H   H113      1.0  0.91120  0.40974  0.23505  1.0000
  H   H114      1.0  0.74997  0.03500  0.04449  1.0000
  H   H115      1.0  0.61625  0.30191  0.08907  1.0000
  C   C104      1.0  0.70782  0.37790  0.01870  1.0000
  H   H116      1.0  0.61263  0.23551  0.04708  1.0000
  H   H117      1.0  0.67556  0.36215  0.09800  1.0000
  H   H118      1.0  0.83032  0.49808  0.13832  1.0000
  H   H119      1.0  0.83381  0.42200  0.28368  1.0000
  H   H120      1.0  0.00031  0.47477  0.23353  1.0000
  C   C105      1.0  0.71444  0.03505  0.03803  1.0000
  C   C106      1.0  0.65581  0.32759  0.07642  1.0000
  H   H121      1.0  0.73000  0.35744  0.01720  1.0000
  H   H122      1.0  0.97432  0.42071  0.02730  1.0000
  C   C107      1.0  0.62513  0.37071  0.03166  1.0000
  H   H123      1.0  0.58355  0.34455  0.03960  1.0000
  H   H124      1.0  0.64211  0.40349  0.05505  1.0000
  H   H125      1.0  0.72921  0.41130  0.04113  1.0000
  N   N7        1.0  0.65361  0.34227  0.03198  1.0000
  C   C108      1.0  0.71688  0.07837  0.01841  1.0000
  H   H126      1.0  0.86233  0.49899  0.23564  1.0000
  H   H127      1.0  0.87330  0.46728  0.32371  1.0000
  H   H128      1.0  0.52127  0.13293  0.33354  1.0000
  S   S26       1.0  0.69968  0.50048  0.24489  1.0000
  C   C109      1.0  0.00663  0.49727  0.26209  1.0000
  S   S27       1.0  0.84451  0.39787  0.02077  1.0000
  C   C110      1.0  0.62340  0.03600  0.02137  1.0000
  C   C111      1.0  0.96604  0.50067  0.28200  1.0000
  C   C112      1.0  0.60972  0.24550  0.01487  1.0000
  H   H129      1.0  0.58788  0.03612  0.01512  1.0000
  H   H130      1.0  0.55924  0.45818  0.43354  1.0000
  N   N8        1.0  0.68943  0.27923  0.63807  1.0000
  S   S28       1.0  0.55067  0.32276  0.63372  1.0000
  Fe  Fe14      1.0  0.55270  0.29797  0.56677  1.0000
  S   S29       1.0  0.62897  0.34393  0.53196  1.0000
  H   H131      1.0  0.73768  0.27182  0.59120  1.0000
  C   C113      1.0  0.63735  0.41715  0.40257  1.0000
  C   C114      1.0  0.68276  0.43046  0.42562  1.0000
  C   C115      1.0  0.67976  0.40700  0.46481  1.0000
  C   C116      1.0  0.63143  0.37024  0.48135  1.0000
  C   C117      1.0  0.58616  0.35624  0.45786  1.0000
  C   C118      1.0  0.58923  0.37943  0.41865  1.0000
  H   H132      1.0  0.72007  0.45946  0.41360  1.0000
  H   H133      1.0  0.71503  0.41800  0.48264  1.0000
  H   H134      1.0  0.54871  0.32761  0.46988  1.0000
  H   H135      1.0  0.55400  0.36826  0.40070  1.0000
  H   H136      1.0  0.66718  0.19894  0.62822  1.0000
  S   S30       1.0  0.52179  0.21479  0.58365  1.0000
  C   C119      1.0  0.52253  0.43328  0.44853  1.0000
  H   H137      1.0  0.53426  0.40411  0.57329  1.0000
  C   C120      1.0  0.66132  0.30799  0.64092  1.0000
  H   H138      1.0  0.57088  0.39534  0.53346  1.0000
  N   N9        1.0  0.56104  0.46036  0.52319  1.0000
  H   H139      1.0  0.69470  0.29136  0.57054  1.0000
  C   C121      1.0  0.56751  0.42507  0.55181  1.0000
  H   H140      1.0  0.60275  0.44601  0.57251  1.0000
  C   C122      1.0  0.72447  0.28845  0.67478  1.0000
  H   H141      1.0  0.62242  0.46895  0.48267  1.0000
  C   C123      1.0  0.71967  0.29534  0.59851  1.0000
  C   C124      1.0  0.64984  0.22324  0.63478  1.0000
  H   H142      1.0  0.51512  0.47257  0.56917  1.0000
  H   H143      1.0  0.62794  0.20933  0.66478  1.0000
  H   H144      1.0  0.75130  0.33672  0.60065  1.0000
  C   C125      1.0  0.75448  0.26405  0.67647  1.0000
  H   H145      1.0  0.68857  0.35062  0.64274  1.0000
  H   H146      1.0  0.75269  0.23890  0.65106  1.0000
  C   C126      1.0  0.54995  0.49485  0.54916  1.0000
  H   H147      1.0  0.62095  0.21494  0.60892  1.0000
  H   H148      1.0  0.63597  0.30070  0.61258  1.0000
  C   C127      1.0  0.51711  0.42972  0.49324  1.0000
  Fe  Fe15      1.0  0.51375  0.23865  0.64951  1.0000
  S   S31       1.0  0.63824  0.44902  0.35533  1.0000
  C   C128      1.0  0.61148  0.49305  0.50201  1.0000
  H   H149      1.0  0.63529  0.29573  0.66862  1.0000
  Fe  Fe16      1.0  0.80643  0.32575  0.97790  1.0000
  S   S32       1.0  0.82125  0.25949  0.97954  1.0000
  Fe  Fe17      1.0  0.74369  0.28710  0.89360  1.0000
  S   S33       1.0  0.75492  0.21854  0.88859  1.0000
  S   S34       1.0  0.70384  0.31707  0.84989  1.0000
  Fe  Fe18      1.0  0.73749  0.20844  0.95851  1.0000
  S   S35       1.0  0.67149  0.13234  0.98487  1.0000
  Fe  Fe19      1.0  0.83783  0.27463  0.90987  1.0000
  S   S36       1.0  0.91121  0.27759  0.88684  1.0000
  S   S37       1.0  0.72188  0.27443  0.96199  1.0000
  S   S38       1.0  0.82781  0.34344  0.90956  1.0000
  C   C129      1.0  0.69321  0.05218  0.91020  1.0000
  C   C130      1.0  0.95904  0.32480  0.85339  1.0000
  C   C131      1.0  0.94944  0.35771  0.82887  1.0000
  H   H150      1.0  0.62461  0.05756  0.90708  1.0000
  H   H151      1.0  0.91189  0.35470  0.83001  1.0000
  H   H152      1.0  0.96387  0.44774  0.93942  1.0000
  C   C132      1.0  0.65678  0.28353  0.80914  1.0000
  C   C133      1.0  0.63791  0.23136  0.79926  1.0000
  C   C134      1.0  0.60074  0.20662  0.76636  1.0000
  C   C135      1.0  0.58240  0.23381  0.74282  1.0000
  C   C136      1.0  0.60138  0.28600  0.75266  1.0000
  C   C137      1.0  0.63823  0.31061  0.78573  1.0000
  H   H153      1.0  0.65191  0.21011  0.81697  1.0000
  H   H154      1.0  0.58625  0.16620  0.75908  1.0000
  H   H155      1.0  0.58730  0.30731  0.73514  1.0000
  H   H156      1.0  0.65254  0.35096  0.79321  1.0000
  C   C138      1.0  0.95877  0.40910  0.94610  1.0000
  C   C139      1.0  0.78672  0.27088  0.71132  1.0000
  C   C140      1.0  0.58876  0.20455  0.98532  1.0000
  H   H157      1.0  0.59993  0.27112  0.89599  1.0000
  C   C141      1.0  0.79011  0.30219  0.74539  1.0000
  H   H158      1.0  0.92337  0.38829  0.96575  1.0000
  C   C142      1.0  0.60156  0.26388  0.92941  1.0000
  C   C143      1.0  0.62810  0.29739  0.00222  1.0000
  C   C144      1.0  0.62286  0.30516  0.95858  1.0000
  C   C145      1.0  0.98821  0.39388  0.80210  1.0000
  C   C146      1.0  0.99452  0.36042  0.97551  1.0000
  C   C147      1.0  0.58483  0.21375  0.94271  1.0000
  H   H159      1.0  0.98014  0.41861  0.78280  1.0000
  H   H160      1.0  0.76390  0.35088  0.77149  1.0000
  C   C148      1.0  0.63974  0.03178  0.91087  1.0000
  C   C149      1.0  0.72918  0.32046  0.70998  1.0000
  C   C150      1.0  0.76166  0.32711  0.74458  1.0000
  H   H161      1.0  0.75401  0.11111  0.00985  1.0000
  H   H162      1.0  0.75506  0.03634  0.91736  1.0000
  H   H163      1.0  0.94956  0.38647  0.91603  1.0000
  H   H164      1.0  0.57731  0.16566  0.99527  1.0000
  H   H165      1.0  0.99354  0.34072  0.94521  1.0000
  C   C151      1.0  0.67130  0.07918  0.01002  1.0000
  H   H166      1.0  0.95621  0.33584  0.99068  1.0000
  H   H167      1.0  0.71912  0.09339  0.90578  1.0000
  C   C152      1.0  0.71333  0.02001  0.91697  1.0000
  H   H168      1.0  0.57009  0.18216  0.91978  1.0000
  S   S39       1.0  0.53566  0.20088  0.70166  1.0000
  H   H169      1.0  0.81444  0.30683  0.77273  1.0000
  H   H170      1.0  0.70752  0.34011  0.71208  1.0000
  H   H171      1.0  0.62632  0.38786  0.00038  1.0000
  H   H172      1.0  0.63696  0.34347  0.94628  1.0000
  N   N10       1.0  0.00522  0.41365  0.96781  1.0000
  H   H173      1.0  0.71004  0.39435  0.98692  1.0000
  H   H174      1.0  0.80884  0.25141  0.71223  1.0000
  C   C153      1.0  0.00807  0.32923  0.85144  1.0000
  S   S40       1.0  0.82754  0.57407  0.24058  1.0000
  S   S41       1.0  0.76490  0.58204  0.32313  1.0000
  Fe  Fe20      1.0  0.75931  0.58545  0.25215  1.0000
  S   S42       1.0  0.76336  0.65628  0.22129  1.0000
  Fe  Fe21      1.0  0.82909  0.56539  0.31106  1.0000
  H   H175      1.0  0.86021  0.76663  0.25637  1.0000
  Fe  Fe22      1.0  0.56822  0.74907  0.12106  1.0000
  S   S43       1.0  0.57753  0.68761  0.15649  1.0000
  Fe  Fe23      1.0  0.59652  0.85672  0.08649  1.0000
  S   S44       1.0  0.66580  0.93817  0.07414  1.0000
  S   S45       1.0  0.57120  0.81934  0.15076  1.0000
  S   S46       1.0  0.60001  0.78873  0.05916  1.0000
  C   C154      1.0  0.66653  0.99187  0.04939  1.0000
  H   H176      1.0  0.92302  0.68663  0.25189  1.0000
  H   H177      1.0  0.69169  0.75429  0.15345  1.0000
  H   H178      1.0  0.64956  0.58997  0.22374  1.0000
  H   H179      1.0  0.58382  0.96016  0.04975  1.0000
  H   H180      1.0  0.57886  0.60379  0.19807  1.0000
  C   C155      1.0  0.71109  0.66413  0.20332  1.0000
  C   C156      1.0  0.72240  0.71051  0.18343  1.0000
  C   C157      1.0  0.68229  0.71850  0.16875  1.0000
  C   C158      1.0  0.63020  0.68013  0.17390  1.0000
  C   C159      1.0  0.61892  0.63387  0.19399  1.0000
  C   C160      1.0  0.65900  0.62584  0.20856  1.0000
  H   H181      1.0  0.76248  0.74046  0.17915  1.0000
  C   C161      1.0  0.53161  0.62500  0.29950  1.0000
  C   C162      1.0  0.91213  0.71598  0.24427  1.0000
  C   C163      1.0  0.97962  0.53199  0.31921  1.0000
  H   H182      1.0  0.90269  0.54070  0.27785  1.0000
  H   H183      1.0  0.96820  0.65007  0.28721  1.0000
  H   H184      1.0  0.87287  0.69520  0.22881  1.0000
  H   H185      1.0  0.87633  0.67456  0.31931  1.0000
  H   H186      1.0  0.93925  0.74186  0.21995  1.0000
  H   H187      1.0  0.83190  0.68967  0.29440  1.0000
  H   H188      1.0  0.90156  0.80795  0.29886  1.0000
  H   H189      1.0  0.93048  0.54243  0.22746  1.0000
  Fe  Fe24      1.0  0.51709  0.75851  0.03819  1.0000
  H   H190      1.0  0.95116  0.53720  0.33574  1.0000
  C   C164      1.0  0.62095  0.99266  0.04086  1.0000
  C   C165      1.0  0.99096  0.65868  0.31604  1.0000
  H   H191      1.0  0.92705  0.81164  0.24698  1.0000
  H   H192      1.0  0.00610  0.81668  0.24912  1.0000
  H   H193      1.0  0.56372  0.61876  0.29376  1.0000
  N   N11       1.0  0.91279  0.74462  0.28295  1.0000
  C   C166      1.0  0.87063  0.70721  0.31053  1.0000
  C   C167      1.0  0.90006  0.78455  0.27081  1.0000
  C   C168      1.0  0.51260  0.64204  0.26674  1.0000
  H   H194      1.0  0.53148  0.64897  0.23656  1.0000
  S   S47       1.0  0.51528  0.82825  0.06258  1.0000
  C   C169      1.0  0.96498  0.76948  0.30341  1.0000
  H   H195      1.0  0.52901  0.72226  0.21481  1.0000
  C   C170      1.0  0.90155  0.51621  0.25077  1.0000
  H   H196      1.0  0.86791  0.72620  0.33994  1.0000
  C   C171      1.0  0.97356  0.75775  0.34519  1.0000
  C   C172      1.0  0.00950  0.80593  0.28100  1.0000
  H   H197      1.0  0.97841  0.63093  0.42068  1.0000
  H   H198      1.0  0.64388  0.51497  0.52525  1.0000
  H   H199      1.0  0.54261  0.52059  0.52879  1.0000
  H   H200      1.0  0.52486  0.60355  0.36485  1.0000
  C   C173      1.0  0.99697  0.64786  0.39111  1.0000
  H   H201      1.0  0.61037  0.52220  0.48121  1.0000
  H   H202      1.0  0.94257  0.72967  0.36454  1.0000
  H   H203      1.0  0.58276  0.51963  0.57130  1.0000
  C   C174      1.0  0.96638  0.63689  0.35409  1.0000
  S   S48       1.0  0.89789  0.59549  0.35746  1.0000
  H   H204      1.0  0.51902  0.97557  0.39454  1.0000
  H   H205      1.0  0.57047  0.81548  0.90705  1.0000
  H   H206      1.0  0.63726  0.86388  0.90237  1.0000
  C   C175      1.0  0.53491  0.87272  0.93607  1.0000
  H   H207      1.0  0.56527  0.96656  0.92002  1.0000
  N   N12       1.0  0.59099  0.88949  0.93493  1.0000
  C   C176      1.0  0.59739  0.85777  0.90206  1.0000
  H   H208      1.0  0.64620  0.88740  0.97901  1.0000
  C   C177      1.0  0.62529  0.94527  0.92601  1.0000
  H   H209      1.0  0.58092  0.83588  0.98397  1.0000
  H   H210      1.0  0.59934  0.89955  0.00225  1.0000
  H   H211      1.0  0.69759  0.94414  0.93023  1.0000
  C   C178      1.0  0.60603  0.97921  0.91875  1.0000
  H   H212      1.0  0.52706  0.89370  0.96141  1.0000
  C   C179      1.0  0.60514  0.87766  0.97664  1.0000
  C   C180      1.0  0.68002  0.96731  0.92456  1.0000
  H   H213      1.0  0.58923  0.86704  0.86993  1.0000
  H   H214      1.0  0.52319  0.63211  0.86886  1.0000
  H   H215      1.0  0.52068  0.87842  0.90512  1.0000
  H   H216      1.0  0.51034  0.83073  0.94327  1.0000
