data_image0
_chemical_formula_structural       H2C2H4SHCSNH2C3H2CHC2HC3HNH3CH3CFeHCH5SCSFeHC2SHCHCHCH3C2H2CHC2H6NCH2SH4CH3SC2H2C2HCH3C2HCH5CH2NCH2FeSFeCSFeCFeC2HS4CSFeHSCH3CH3FeSH2CHC2HCH5C2NHCHC2H6CNH3C2H3CH2SC2H2SH2S3FeH2C2SC3H3FeHFe2HCFeH2FeSHCH5CHCH2CHC2HNH2CH2CH4SCHC2H3FeH2NCH3CHC2HCHC2H3CHSCHC2HCHCSH2CSH3C2H4SHCHSCH2CNHCH6CH3CSCHCHFeHSC2HSCH2SFeCHSC2HFeHS2HFeHC2H2C2H2CH3CHCH2CNCH5C2H4CSHCH6CFeHSCHC2H2CH4C2H2CH2CH5CH2C3H2CH9C2H5NHCHCHC2H2SH2CSH3CHCH2CHC4HNCH5CH2CFeC2HC2SHCH3CH4C2SH4FeHSHC2HCSCHS2C4Fe2SH2CHS
_chemical_formula_sum              "H288 C168 S48 N12 Fe24"
_cell_length_a       20.1231
_cell_length_b       18.5074
_cell_length_c       19.98
_cell_angle_alpha    103.946
_cell_angle_beta     106.825
_cell_angle_gamma    69.6605

_space_group_name_H-M_alt    "P 1"
_space_group_IT_number       1

loop_
  _space_group_symop_operation_xyz
  'x, y, z'

loop_
  _atom_site_type_symbol
  _atom_site_label
  _atom_site_symmetry_multiplicity
  _atom_site_fract_x
  _atom_site_fract_y
  _atom_site_fract_z
  _atom_site_occupancy
  H   H1        1.0  0.62892  0.64833  0.19549  1.0000
  H   H2        1.0  0.59663  0.78116  0.17024  1.0000
  C   C1        1.0  0.74499  0.66596  0.15833  1.0000
  C   C2        1.0  0.64480  0.67262  0.25199  1.0000
  H   H3        1.0  0.57178  0.46682  0.08468  1.0000
  H   H4        1.0  0.43368  0.43050  0.07946  1.0000
  H   H5        1.0  0.64570  0.34736  0.06389  1.0000
  H   H6        1.0  0.67123  0.53738  0.04697  1.0000
  S   S1        1.0  0.35582  0.69028  0.21322  1.0000
  H   H7        1.0  0.75736  0.66648  0.05344  1.0000
  C   C3        1.0  0.47601  0.70278  0.02906  1.0000
  S   S2        1.0  0.56963  0.34912  0.16127  1.0000
  N   N1        1.0  0.74852  0.71268  0.23168  1.0000
  H   H8        1.0  0.76579  0.75323  0.11420  1.0000
  H   H9        1.0  0.76198  0.45480  0.23801  1.0000
  C   C4        1.0  0.44663  0.46901  0.12819  1.0000
  C   C5        1.0  0.58370  0.50449  0.05743  1.0000
  C   C6        1.0  0.41606  0.59557  0.20199  1.0000
  H   H10       1.0  0.48847  0.74372  0.07602  1.0000
  H   H11       1.0  0.68829  0.66864  0.13019  1.0000
  C   C7        1.0  0.38123  0.28938  0.12102  1.0000
  H   H12       1.0  0.68645  0.50766  0.12823  1.0000
  C   C8        1.0  0.39947  0.54458  0.13994  1.0000
  C   C9        1.0  0.52731  0.49446  0.24125  1.0000
  H   H13       1.0  0.70273  0.38200  0.14153  1.0000
  C   C10       1.0  0.51020  0.44335  0.17910  1.0000
  C   C11       1.0  0.70029  0.35645  0.08471  1.0000
  C   C12       1.0  0.66582  0.49194  0.07029  1.0000
  H   H14       1.0  0.77272  0.60298  0.16111  1.0000
  N   N2        1.0  0.70950  0.41060  0.04429  1.0000
  H   H15       1.0  0.35021  0.56382  0.10045  1.0000
  H   H16       1.0  0.55699  0.56526  0.07957  1.0000
  H   H17       1.0  0.38449  0.69385  0.05835  1.0000
  C   C13       1.0  0.77868  0.68917  0.10939  1.0000
  H   H18       1.0  0.33304  0.34042  0.12776  1.0000
  H   H19       1.0  0.42819  0.31256  0.13345  1.0000
  H   H20       1.0  0.38084  0.45665  0.24666  1.0000
  C   C14       1.0  0.48019  0.57070  0.25272  1.0000
  Fe  Fe1       1.0  0.62579  0.29076  0.25660  1.0000
  H   H21       1.0  0.60676  0.73135  0.26473  1.0000
  C   C15       1.0  0.78900  0.40506  0.06197  1.0000
  H   H22       1.0  0.78121  0.52144  0.04289  1.0000
  H   H23       1.0  0.35967  0.50577  0.46431  1.0000
  H   H24       1.0  0.77407  0.51559  0.43236  1.0000
  H   H25       1.0  0.49333  0.61037  0.30030  1.0000
  H   H26       1.0  0.34848  0.33283  0.42492  1.0000
  S   S3        1.0  0.63432  0.35802  0.36596  1.0000
  C   C16       1.0  0.67168  0.53726  0.49734  1.0000
  S   S4        1.0  0.50127  0.29599  0.43547  1.0000
  Fe  Fe2       1.0  0.38063  0.77625  0.30972  1.0000
  H   H27       1.0  0.70487  0.59869  0.40358  1.0000
  C   C17       1.0  0.72427  0.67458  0.27549  1.0000
  C   C18       1.0  0.35596  0.36043  0.38673  1.0000
  S   S5        1.0  0.45189  0.75649  0.41706  1.0000
  H   H28       1.0  0.48787  0.37793  0.32299  1.0000
  C   C19       1.0  0.74900  0.57868  0.44964  1.0000
  H   H29       1.0  0.39634  0.66194  0.51735  1.0000
  C   C20       1.0  0.30394  0.44017  0.29289  1.0000
  H   H30       1.0  0.44427  0.57865  0.46162  1.0000
  C   C21       1.0  0.42572  0.35112  0.38026  1.0000
  H   H31       1.0  0.57054  0.51580  0.43369  1.0000
  H   H32       1.0  0.56027  0.61548  0.47017  1.0000
  H   H33       1.0  0.72980  0.70463  0.33111  1.0000
  C   C22       1.0  0.39265  0.60815  0.47924  1.0000
  C   C23       1.0  0.29534  0.40508  0.34338  1.0000
  H   H34       1.0  0.60239  0.57165  0.39519  1.0000
  H   H35       1.0  0.74476  0.38303  0.31827  1.0000
  C   C24       1.0  0.37371  0.42989  0.28566  1.0000
  H   H36       1.0  0.35062  0.62689  0.43145  1.0000
  C   C25       1.0  0.59719  0.56230  0.44589  1.0000
  C   C26       1.0  0.43453  0.38553  0.32942  1.0000
  H   H37       1.0  0.63752  0.63436  0.28274  1.0000
  H   H38       1.0  0.75970  0.61325  0.27781  1.0000
  H   H39       1.0  0.49121  0.45530  0.50007  1.0000
  H   H40       1.0  0.63332  0.69412  0.47922  1.0000
  H   H41       1.0  0.70062  0.47723  0.47446  1.0000
  H   H42       1.0  0.78366  0.68432  0.46762  1.0000
  N   N3        1.0  0.71825  0.59080  0.51335  1.0000
  C   C27       1.0  0.36929  0.55316  0.50878  1.0000
  H   H43       1.0  0.31496  0.58747  0.51999  1.0000
  H   H44       1.0  0.57764  0.47606  0.27940  1.0000
  S   S6        1.0  0.54942  0.34832  0.75398  1.0000
  H   H45       1.0  0.58208  0.74155  0.57580  1.0000
  H   H46       1.0  0.44394  0.62767  0.62426  1.0000
  H   H47       1.0  0.36587  0.62049  0.64012  1.0000
  H   H48       1.0  0.66879  0.72497  0.63804  1.0000
  C   C28       1.0  0.42192  0.58495  0.63451  1.0000
  H   H49       1.0  0.66129  0.52926  0.54620  1.0000
  H   H50       1.0  0.71326  0.38239  0.56466  1.0000
  H   H51       1.0  0.52399  0.52686  0.56491  1.0000
  S   S7        1.0  0.68768  0.50240  0.68328  1.0000
  C   C29       1.0  0.31662  0.48581  0.59746  1.0000
  C   C30       1.0  0.39425  0.45779  0.58514  1.0000
  H   H52       1.0  0.46640  0.50809  0.71780  1.0000
  H   H53       1.0  0.42977  0.42889  0.63099  1.0000
  C   C31       1.0  0.75131  0.36135  0.61149  1.0000
  C   C32       1.0  0.77782  0.57164  0.57817  1.0000
  H   H54       1.0  0.70204  0.29284  0.74330  1.0000
  C   C33       1.0  0.49581  0.48213  0.55684  1.0000
  H   H55       1.0  0.52934  0.36512  0.58766  1.0000
  H   H56       1.0  0.52511  0.56130  0.71448  1.0000
  H   H57       1.0  0.62637  0.64879  0.60331  1.0000
  C   C34       1.0  0.54909  0.41655  0.59843  1.0000
  C   C35       1.0  0.46764  0.56350  0.70752  1.0000
  H   H58       1.0  0.70962  0.71383  0.53971  1.0000
  C   C36       1.0  0.75194  0.40907  0.67759  1.0000
  H   H59       1.0  0.56277  0.43638  0.65604  1.0000
  H   H60       1.0  0.39617  0.40965  0.53911  1.0000
  H   H61       1.0  0.75436  0.57724  0.62383  1.0000
  H   H62       1.0  0.60048  0.39507  0.58026  1.0000
  H   H63       1.0  0.40915  0.75819  0.74349  1.0000
  C   C37       1.0  0.67453  0.67518  0.52747  1.0000
  H   H64       1.0  0.30996  0.53378  0.64280  1.0000
  H   H65       1.0  0.44476  0.60820  0.74976  1.0000
  N   N4        1.0  0.42119  0.51917  0.57299  1.0000
  C   C38       1.0  0.63627  0.69812  0.58978  1.0000
  H   H66       1.0  0.30537  0.43641  0.61001  1.0000
  H   H67       1.0  0.32192  0.72195  0.76332  1.0000
  Fe  Fe3       1.0  0.67286  0.76951  0.81231  1.0000
  S   S8        1.0  0.72021  0.76740  0.92752  1.0000
  Fe  Fe4       1.0  0.36250  0.45736  0.89762  1.0000
  C   C39       1.0  0.50450  0.62203  0.92003  1.0000
  S   S9        1.0  0.33144  0.58067  0.95151  1.0000
  Fe  Fe5       1.0  0.45868  0.35286  0.80078  1.0000
  C   C40       1.0  0.44570  0.59323  0.91041  1.0000
  Fe  Fe6       1.0  0.70536  0.59298  0.77842  1.0000
  C   C41       1.0  0.30161  0.76228  0.80882  1.0000
  C   C42       1.0  0.40225  0.61929  0.96030  1.0000
  H   H68       1.0  0.63320  0.36776  0.95636  1.0000
  S   S10       1.0  0.31389  0.36604  0.89816  1.0000
  S   S11       1.0  0.59776  0.70666  0.99883  1.0000
  S   S12       1.0  0.34712  0.43801  0.78010  1.0000
  S   S13       1.0  0.76685  0.67356  0.77881  1.0000
  C   C43       1.0  0.68358  0.38461  0.96632  1.0000
  S   S14       1.0  0.75533  0.57793  0.89223  1.0000
  Fe  Fe7       1.0  0.30532  0.34046  0.78115  1.0000
  H   H69       1.0  0.69991  0.41674  0.87491  1.0000
  S   S15       1.0  0.60678  0.69057  0.80183  1.0000
  C   C44       1.0  0.66644  0.44304  0.91522  1.0000
  H   H70       1.0  0.60875  0.45473  0.88550  1.0000
  H   H71       1.0  0.67554  0.49974  0.93990  1.0000
  H   H72       1.0  0.53883  0.60076  0.88228  1.0000
  C   C45       1.0  0.52052  0.67554  0.98030  1.0000
  H   H73       1.0  0.33742  0.74302  0.85906  1.0000
  H   H74       1.0  0.43484  0.54983  0.86513  1.0000
  H   H75       1.0  0.44016  0.77435  0.86596  1.0000
  Fe  Fe8       1.0  0.66056  0.68130  0.91539  1.0000
  S   S16       1.0  0.47560  0.37610  0.91922  1.0000
  H   H76       1.0  0.72417  0.33049  0.94793  1.0000
  H   H77       1.0  0.55834  0.49460  0.00030  1.0000
  C   C46       1.0  0.41681  0.67505  0.01889  1.0000
  H   H78       1.0  0.61127  0.19085  0.04567  1.0000
  C   C47       1.0  0.75499  0.27416  0.08371  1.0000
  C   C48       1.0  0.63287  0.81573  0.17395  1.0000
  H   H79       1.0  0.40051  0.03127  0.07721  1.0000
  C   C49       1.0  0.39000  0.08763  0.05981  1.0000
  H   H80       1.0  0.37501  0.26104  0.06501  1.0000
  H   H81       1.0  0.65355  0.02324  0.13786  1.0000
  H   H82       1.0  0.73642  0.83243  0.22576  1.0000
  H   H83       1.0  0.74783  0.89262  0.05087  1.0000
  H   H84       1.0  0.29638  0.94371  0.17654  1.0000
  C   C50       1.0  0.69798  0.08381  0.02929  1.0000
  C   C51       1.0  0.66354  0.96559  0.10422  1.0000
  N   N5        1.0  0.34055  0.19141  0.16072  1.0000
  H   H85       1.0  0.40432  0.26623  0.22622  1.0000
  C   C52       1.0  0.36881  0.13126  0.20945  1.0000
  H   H86       1.0  0.60170  0.87801  0.18612  1.0000
  C   C53       1.0  0.70403  0.79711  0.23151  1.0000
  C   C54       1.0  0.63988  0.13707  0.07028  1.0000
  H   H87       1.0  0.73683  0.23882  0.10842  1.0000
  H   H88       1.0  0.64431  0.80802  0.12132  1.0000
  H   H89       1.0  0.60947  0.95759  0.07671  1.0000
  H   H90       1.0  0.59723  0.10995  0.06538  1.0000
  H   H91       1.0  0.44051  0.10475  0.07693  1.0000
  H   H92       1.0  0.33167  0.09485  0.19795  1.0000
  C   C55       1.0  0.32469  0.15055  0.08556  1.0000
  N   N6        1.0  0.74857  0.01032  0.05718  1.0000
  H   H93       1.0  0.45166  0.18949  0.17068  1.0000
  H   H94       1.0  0.74957  0.05986  0.16806  1.0000
  H   H95       1.0  0.66252  0.15706  0.12637  1.0000
  C   C56       1.0  0.78757  0.03062  0.13261  1.0000
  C   C57       1.0  0.39713  0.23193  0.17222  1.0000
  H   H96       1.0  0.69060  0.92084  0.13952  1.0000
  H   H97       1.0  0.29724  0.19219  0.04693  1.0000
  H   H98       1.0  0.42173  0.08933  0.20025  1.0000
  C   C58       1.0  0.70859  0.95228  0.04903  1.0000
  H   H99       1.0  0.75778  0.24508  0.02899  1.0000
  H   H100      1.0  0.73033  0.12034  0.02599  1.0000
  S   S17       1.0  0.58158  0.20543  0.27795  1.0000
  C   C59       1.0  0.69293  0.97506  0.34131  1.0000
  C   C60       1.0  0.63830  0.90022  0.40981  1.0000
  H   H101      1.0  0.62873  0.14299  0.50609  1.0000
  H   H102      1.0  0.53583  0.94186  0.33750  1.0000
  S   S18       1.0  0.73130  0.00478  0.28850  1.0000
  H   H103      1.0  0.39737  0.11399  0.31892  1.0000
  H   H104      1.0  0.46321  0.15648  0.46624  1.0000
  S   S19       1.0  0.60845  0.84455  0.44770  1.0000
  S   S20       1.0  0.70968  0.19059  0.42382  1.0000
  S   S21       1.0  0.40491  0.94811  0.46106  1.0000
  Fe  Fe9       1.0  0.69687  0.13436  0.31057  1.0000
  H   H105      1.0  0.58429  0.00777  0.27651  1.0000
  H   H106      1.0  0.32822  0.11736  0.44542  1.0000
  C   C61       1.0  0.50359  0.09834  0.45877  1.0000
  C   C62       1.0  0.73758  0.93952  0.39967  1.0000
  S   S22       1.0  0.42431  0.86786  0.29942  1.0000
  C   C63       1.0  0.38215  0.16319  0.28942  1.0000
  C   C64       1.0  0.61927  0.97897  0.32086  1.0000
  C   C65       1.0  0.59199  0.94111  0.35498  1.0000
  H   H107      1.0  0.68969  0.82216  0.28354  1.0000
  H   H108      1.0  0.33307  0.20634  0.30546  1.0000
  H   H109      1.0  0.42796  0.18866  0.30700  1.0000
  Fe  Fe10      1.0  0.33629  0.95358  0.35088  1.0000
  H   H110      1.0  0.74607  0.87139  0.47694  1.0000
  Fe  Fe11      1.0  0.59678  0.26814  0.38882  1.0000
  Fe  Fe12      1.0  0.36200  0.85095  0.45972  1.0000
  H   H111      1.0  0.54145  0.10089  0.42931  1.0000
  C   C66       1.0  0.71046  0.90151  0.43353  1.0000
  Fe  Fe13      1.0  0.48953  0.85480  0.41008  1.0000
  H   H112      1.0  0.47301  0.05813  0.42441  1.0000
  H   H113      1.0  0.57905  0.00661  0.51447  1.0000
  Fe  Fe14      1.0  0.74585  0.27435  0.38877  1.0000
  S   S23       1.0  0.74061  0.21248  0.27719  1.0000
  H   H114      1.0  0.79410  0.93843  0.41685  1.0000
  C   C67       1.0  0.54318  0.19722  0.59828  1.0000
  H   H115      1.0  0.64152  0.11909  0.69466  1.0000
  H   H116      1.0  0.74996  0.14456  0.57781  1.0000
  H   H117      1.0  0.50309  0.05815  0.55142  1.0000
  H   H118      1.0  0.34163  0.82828  0.69437  1.0000
  H   H119      1.0  0.46741  0.16079  0.63765  1.0000
  C   C68       1.0  0.61715  0.07965  0.65042  1.0000
  H   H120      1.0  0.68977  0.97915  0.69979  1.0000
  C   C69       1.0  0.44816  0.84474  0.72707  1.0000
  H   H121      1.0  0.46614  0.80511  0.67995  1.0000
  H   H122      1.0  0.42428  0.22153  0.56865  1.0000
  C   C70       1.0  0.70567  0.15288  0.60422  1.0000
  H   H123      1.0  0.57192  0.07415  0.66812  1.0000
  C   C71       1.0  0.46958  0.20915  0.61570  1.0000
  C   C72       1.0  0.67350  0.99780  0.64700  1.0000
  H   H124      1.0  0.53093  0.22731  0.55251  1.0000
  N   N7        1.0  0.58867  0.11395  0.58269  1.0000
  H   H125      1.0  0.68064  0.21676  0.61693  1.0000
  H   H126      1.0  0.30605  0.96162  0.69836  1.0000
  C   C73       1.0  0.38740  0.82196  0.74187  1.0000
  H   H127      1.0  0.73206  0.12770  0.65382  1.0000
  H   H128      1.0  0.65065  0.95333  0.60873  1.0000
  C   C74       1.0  0.54404  0.06639  0.52897  1.0000
  H   H129      1.0  0.72394  0.99731  0.63469  1.0000
  H   H130      1.0  0.45780  0.26238  0.65554  1.0000
  H   H131      1.0  0.42940  0.90472  0.71437  1.0000
  H   H132      1.0  0.57441  0.22962  0.64283  1.0000
  S   S24       1.0  0.32362  0.85028  0.55433  1.0000
  C   C75       1.0  0.65017  0.11286  0.55326  1.0000
  H   H133      1.0  0.68052  0.05214  0.53362  1.0000
  C   C76       1.0  0.40034  0.87132  0.94398  1.0000
  C   C77       1.0  0.56046  0.95039  0.88147  1.0000
  H   H134      1.0  0.56738  0.25648  0.85451  1.0000
  H   H135      1.0  0.32105  0.98471  0.85957  1.0000
  H   H136      1.0  0.37815  0.07907  0.00116  1.0000
  Fe  Fe15      1.0  0.42558  0.28003  0.90476  1.0000
  H   H137      1.0  0.66680  0.06969  0.97467  1.0000
  H   H138      1.0  0.67146  0.94901  0.99590  1.0000
  N   N8        1.0  0.36098  0.86551  0.80806  1.0000
  C   C78       1.0  0.74933  0.18077  0.87293  1.0000
  H   H139      1.0  0.74654  0.01092  0.90847  1.0000
  H   H140      1.0  0.53637  0.15794  0.85545  1.0000
  H   H141      1.0  0.46853  0.85647  0.87455  1.0000
  C   C79       1.0  0.68018  0.19505  0.88354  1.0000
  H   H142      1.0  0.67279  0.16987  0.92299  1.0000
  C   C80       1.0  0.77709  0.95722  0.93243  1.0000
  C   C81       1.0  0.34428  0.95239  0.81284  1.0000
  H   H143      1.0  0.57000  0.89203  0.89040  1.0000
  C   C82       1.0  0.54090  0.10073  0.86139  1.0000
  H   H144      1.0  0.49999  0.00726  0.96332  1.0000
  C   C83       1.0  0.57858  0.03661  0.81966  1.0000
  C   C84       1.0  0.58722  0.96129  0.82834  1.0000
  H   H145      1.0  0.60207  0.04565  0.78139  1.0000
  H   H146      1.0  0.31168  0.21639  0.82647  1.0000
  H   H147      1.0  0.44905  0.84978  0.98582  1.0000
  C   C85       1.0  0.61981  0.24427  0.84452  1.0000
  H   H148      1.0  0.39492  0.96814  0.82055  1.0000
  S   S25       1.0  0.41492  0.25303  0.78712  1.0000
  C   C86       1.0  0.75704  0.21417  0.82051  1.0000
  H   H149      1.0  0.35679  0.85078  0.94902  1.0000
  C   C87       1.0  0.51055  0.09123  0.91173  1.0000
  C   C88       1.0  0.42014  0.83915  0.87124  1.0000
  H   H150      1.0  0.74330  0.91723  0.91758  1.0000
  C   C89       1.0  0.52160  0.01552  0.92306  1.0000
  H   H151      1.0  0.38483  0.93576  0.95561  1.0000
  C   C90       1.0  0.69579  0.26476  0.78181  1.0000
  S   S26       1.0  0.46064  0.17465  0.96051  1.0000
  H   H152      1.0  0.49654  0.83892  0.77147  1.0000
  H   H153      1.0  0.29995  0.14893  0.91174  1.0000
  C   C91       1.0  0.62708  0.28066  0.79504  1.0000
  S   S27       1.0  0.63148  0.88269  0.77176  1.0000
  H   H154      1.0  0.19251  0.66761  0.14441  1.0000
  H   H155      1.0  0.11821  0.38651  0.10664  1.0000
  H   H156      1.0  0.99369  0.50982  0.11980  1.0000
  C   C92       1.0  0.09011  0.38740  0.04967  1.0000
  C   C93       1.0  0.81080  0.45912  0.03026  1.0000
  H   H157      1.0  0.95385  0.53446  0.03120  1.0000
  H   H158      1.0  0.03172  0.39671  0.04655  1.0000
  H   H159      1.0  0.28288  0.29099  0.22657  1.0000
  H   H160      1.0  0.86939  0.45321  0.05327  1.0000
  S   S28       1.0  0.22743  0.49625  0.23907  1.0000
  H   H161      1.0  0.80915  0.41540  0.12031  1.0000
  C   C94       1.0  0.18358  0.75162  0.07970  1.0000
  H   H162      1.0  0.10697  0.53048  0.12449  1.0000
  S   S29       1.0  0.88800  0.49275  0.23284  1.0000
  C   C95       1.0  0.17990  0.44050  0.03330  1.0000
  H   H163      1.0  0.97323  0.60709  0.10457  1.0000
  H   H164      1.0  0.24775  0.29154  0.13507  1.0000
  C   C96       1.0  0.07057  0.52792  0.07067  1.0000
  N   N9        1.0  0.09972  0.45244  0.02372  1.0000
  H   H165      1.0  0.85135  0.72760  0.23173  1.0000
  C   C97       1.0  0.17123  0.73177  0.14517  1.0000
  H   H166      1.0  0.83861  0.66219  0.12034  1.0000
  H   H167      1.0  0.06926  0.57905  0.04972  1.0000
  H   H168      1.0  0.20842  0.43733  0.08979  1.0000
  H   H169      1.0  0.18322  0.56116  0.04490  1.0000
  H   H170      1.0  0.23926  0.71435  0.07377  1.0000
  H   H171      1.0  0.14653  0.72967  0.03231  1.0000
  C   C98       1.0  0.99328  0.54474  0.08150  1.0000
  H   H172      1.0  0.82205  0.34527  0.04322  1.0000
  H   H173      1.0  0.20035  0.75850  0.19569  1.0000
  H   H174      1.0  0.11266  0.74963  0.14521  1.0000
  C   C99       1.0  0.82730  0.70818  0.26516  1.0000
  S   S30       1.0  0.09554  0.43351  0.29799  1.0000
  C   C100      1.0  0.85503  0.36183  0.38055  1.0000
  H   H175      1.0  0.90271  0.74265  0.35942  1.0000
  C   C101      1.0  0.92261  0.37189  0.38894  1.0000
  H   H176      1.0  0.24211  0.41082  0.34876  1.0000
  Fe  Fe16      1.0  0.13881  0.52833  0.29618  1.0000
  H   H177      1.0  0.96753  0.34973  0.43131  1.0000
  S   S31       1.0  0.03111  0.76216  0.46582  1.0000
  C   C102      1.0  0.84297  0.75824  0.33822  1.0000
  C   C103      1.0  0.80719  0.43012  0.27887  1.0000
  H   H178      1.0  0.81965  0.74951  0.37832  1.0000
  S   S32       1.0  0.84287  0.31545  0.44063  1.0000
  C   C104      1.0  0.79739  0.39008  0.32488  1.0000
  H   H179      1.0  0.86070  0.64728  0.27058  1.0000
  H   H180      1.0  0.85497  0.60068  0.50095  1.0000
  S   S33       1.0  0.02912  0.61855  0.27973  1.0000
  Fe  Fe17      1.0  0.98843  0.52540  0.29328  1.0000
  C   C105      1.0  0.93281  0.40945  0.34161  1.0000
  H   H181      1.0  0.98578  0.41446  0.34732  1.0000
  S   S34       1.0  0.17325  0.38682  0.49205  1.0000
  C   C106      1.0  0.87518  0.43960  0.28722  1.0000
  C   C107      1.0  0.15865  0.76261  0.44347  1.0000
  H   H182      1.0  0.14556  0.72675  0.39305  1.0000
  Fe  Fe18      1.0  0.05304  0.64485  0.39860  1.0000
  H   H183      1.0  0.26094  0.76040  0.42811  1.0000
  S   S35       1.0  0.16540  0.56150  0.41398  1.0000
  S   S36       1.0  0.00415  0.55895  0.41107  1.0000
  H   H184      1.0  0.82629  0.60369  0.40881  1.0000
  Fe  Fe19      1.0  0.11484  0.47200  0.41534  1.0000
  H   H185      1.0  0.09631  0.31562  0.36293  1.0000
  C   C108      1.0  0.80651  0.61987  0.45845  1.0000
  C   C109      1.0  0.19382  0.29146  0.44480  1.0000
  H   H186      1.0  0.09723  0.71073  0.64414  1.0000
  H   H187      1.0  0.13657  0.44140  0.63812  1.0000
  C   C110      1.0  0.02396  0.47550  0.58327  1.0000
  C   C111      1.0  0.08514  0.48663  0.64798  1.0000
  H   H188      1.0  0.91420  0.67724  0.63719  1.0000
  H   H189      1.0  0.07206  0.47048  0.69174  1.0000
  C   C112      1.0  0.13952  0.65920  0.62494  1.0000
  H   H190      1.0  0.97036  0.51344  0.59259  1.0000
  H   H191      1.0  0.02225  0.41467  0.57471  1.0000
  H   H192      1.0  0.21000  0.52804  0.71761  1.0000
  C   C113      1.0  0.96812  0.66499  0.62549  1.0000
  H   H193      1.0  0.19234  0.65451  0.66374  1.0000
  C   C114      1.0  0.83193  0.48892  0.57087  1.0000
  H   H194      1.0  0.97171  0.72293  0.62315  1.0000
  H   H195      1.0  0.27528  0.50302  0.54902  1.0000
  C   C115      1.0  0.15790  0.56483  0.73231  1.0000
  N   N10       1.0  0.09550  0.56664  0.66807  1.0000
  C   C116      1.0  0.80333  0.38159  0.73715  1.0000
  H   H196      1.0  0.96684  0.62912  0.57261  1.0000
  H   H197      1.0  0.04363  0.67782  0.72329  1.0000
  H   H198      1.0  0.80919  0.61449  0.59572  1.0000
  H   H199      1.0  0.86287  0.47885  0.53009  1.0000
  H   H200      1.0  0.80429  0.44355  0.55800  1.0000
  C   C117      1.0  0.11831  0.58326  0.60918  1.0000
  C   C118      1.0  0.80129  0.28676  0.60478  1.0000
  H   H201      1.0  0.07618  0.58529  0.55943  1.0000
  H   H202      1.0  0.87157  0.48009  0.62226  1.0000
  H   H203      1.0  0.16557  0.53440  0.59499  1.0000
  H   H204      1.0  0.14651  0.66989  0.57543  1.0000
  C   C119      1.0  0.02819  0.62796  0.68677  1.0000
  S   S37       1.0  0.20497  0.30659  0.72178  1.0000
  H   H205      1.0  0.00278  0.60502  0.71645  1.0000
  C   C120      1.0  0.85250  0.30581  0.73048  1.0000
  H   H206      1.0  0.16422  0.62417  0.75336  1.0000
  H   H207      1.0  0.09568  0.28638  0.52807  1.0000
  H   H208      1.0  0.03314  0.48398  0.53415  1.0000
  H   H209      1.0  0.09818  0.55954  0.80747  1.0000
  H   H210      1.0  0.12912  0.69670  0.88764  1.0000
  H   H211      1.0  0.89211  0.28556  0.77635  1.0000
  C   C121      1.0  0.11572  0.30451  0.00925  1.0000
  Fe  Fe20      1.0  0.81002  0.66599  0.89416  1.0000
  H   H212      1.0  0.00187  0.45474  0.94125  1.0000
  S   S38       1.0  0.92665  0.65748  0.94715  1.0000
  C   C122      1.0  0.92019  0.76548  0.86949  1.0000
  H   H213      1.0  0.19271  0.55117  0.84363  1.0000
  C   C123      1.0  0.15291  0.53472  0.79573  1.0000
  C   C124      1.0  0.02719  0.77707  0.84464  1.0000
  H   H214      1.0  0.16803  0.47012  0.78649  1.0000
  H   H215      1.0  0.17382  0.28575  0.00757  1.0000
  C   C125      1.0  0.03969  0.68205  0.91606  1.0000
  H   H216      1.0  0.17417  0.50966  0.95461  1.0000
  H   H217      1.0  0.07418  0.63628  0.94647  1.0000
  H   H218      1.0  0.24743  0.75661  0.80538  1.0000
  H   H219      1.0  0.10396  0.43223  0.85525  1.0000
  C   C126      1.0  0.05732  0.45928  0.94845  1.0000
  C   C127      1.0  0.96426  0.70524  0.90832  1.0000
  H   H220      1.0  0.04787  0.51827  0.93684  1.0000
  H   H221      1.0  0.14069  0.35368  0.90535  1.0000
  C   C128      1.0  0.07085  0.71652  0.88295  1.0000
  H   H222      1.0  0.24422  0.73935  0.96816  1.0000
  H   H223      1.0  0.05042  0.37264  0.85264  1.0000
  C   C129      1.0  0.09110  0.40096  0.88847  1.0000
  H   H224      1.0  0.08129  0.29794  0.95502  1.0000
  H   H225      1.0  0.20769  0.38403  0.00474  1.0000
  H   H226      1.0  0.80457  0.41811  0.78836  1.0000
  H   H227      1.0  0.80504  0.44111  0.97231  1.0000
  H   H228      1.0  0.25881  0.48742  0.01817  1.0000
  C   C130      1.0  0.19882  0.50389  0.01105  1.0000
  H   H229      1.0  0.03574  0.81270  0.05092  1.0000
  H   H230      1.0  0.28415  0.11949  0.07845  1.0000
  C   C131      1.0  0.84407  0.96137  0.16751  1.0000
  C   C132      1.0  0.21053  0.22096  0.17791  1.0000
  C   C133      1.0  0.23992  0.85596  0.13388  1.0000
  H   H231      1.0  0.22730  0.18586  0.22089  1.0000
  H   H232      1.0  0.86300  0.98223  0.22467  1.0000
  C   C134      1.0  0.24813  0.93607  0.13457  1.0000
  H   H233      1.0  0.84300  0.91809  0.02912  1.0000
  H   H234      1.0  0.81589  0.07401  0.13596  1.0000
  H   H235      1.0  0.10021  0.95108  0.10491  1.0000
  H   H236      1.0  0.82063  0.91430  0.16439  1.0000
  H   H237      1.0  0.19146  0.18625  0.12698  1.0000
  H   H238      1.0  0.11010  0.88554  0.16085  1.0000
  H   H239      1.0  0.29156  0.81121  0.12459  1.0000
  H   H240      1.0  0.80992  0.27527  0.11580  1.0000
  H   H241      1.0  0.10892  0.26268  0.03640  1.0000
  C   C135      1.0  0.03493  0.87430  0.05884  1.0000
  C   C136      1.0  0.10676  0.88892  0.10501  1.0000
  H   H242      1.0  0.20068  0.98520  0.14718  1.0000
  H   H243      1.0  0.98999  0.91019  0.08534  1.0000
  H   H244      1.0  0.16310  0.27123  0.18928  1.0000
  H   H245      1.0  0.23896  0.85445  0.18888  1.0000
  H   H246      1.0  0.25825  0.94031  0.08421  1.0000
  N   N11       1.0  0.17504  0.83643  0.08176  1.0000
  H   H247      1.0  0.89283  0.93750  0.14476  1.0000
  C   C137      1.0  0.27153  0.25211  0.17558  1.0000
  H   H248      1.0  0.84044  0.01327  0.02259  1.0000
  C   C138      1.0  0.22382  0.78197  0.46314  1.0000
  H   H249      1.0  0.08857  0.96291  0.36412  1.0000
  C   C139      1.0  0.25777  0.23401  0.46951  1.0000
  C   C140      1.0  0.16722  0.20066  0.33834  1.0000
  H   H250      1.0  0.13422  0.03634  0.38021  1.0000
  H   H251      1.0  0.08031  0.17365  0.44267  1.0000
  S   S39       1.0  0.25907  0.05788  0.30255  1.0000
  H   H252      1.0  0.03676  0.06234  0.36461  1.0000
  H   H253      1.0  0.88036  0.10242  0.44865  1.0000
  C   C141      1.0  0.08851  0.02310  0.39048  1.0000
  S   S40       1.0  0.28734  0.86303  0.35288  1.0000
  H   H254      1.0  0.94871  0.04987  0.51385  1.0000
  H   H255      1.0  0.96669  0.15797  0.42751  1.0000
  H   H256      1.0  0.15637  0.01110  0.49319  1.0000
  C   C142      1.0  0.09665  0.02933  0.47081  1.0000
  H   H257      1.0  0.95534  0.02576  0.42197  1.0000
  C   C143      1.0  0.23286  0.14462  0.36096  1.0000
  H   H258      1.0  0.13175  0.18820  0.28769  1.0000
  H   H259      1.0  0.82496  0.82067  0.33302  1.0000
  C   C144      1.0  0.27748  0.16044  0.42748  1.0000
  H   H260      1.0  0.07889  0.98270  0.48039  1.0000
  C   C145      1.0  0.97990  0.13526  0.47804  1.0000
  C   C146      1.0  0.93981  0.07393  0.46518  1.0000
  C   C147      1.0  0.11044  0.79005  0.48864  1.0000
  C   C148      1.0  0.09422  0.16613  0.49926  1.0000
  H   H261      1.0  0.15477  0.14420  0.51324  1.0000
  N   N12       1.0  0.06097  0.10852  0.50813  1.0000
  C   C149      1.0  0.14753  0.27344  0.38043  1.0000
  H   H262      1.0  0.29302  0.24734  0.51999  1.0000
  H   H263      1.0  0.95265  0.18589  0.51408  1.0000
  H   H264      1.0  0.18640  0.02741  0.60894  1.0000
  H   H265      1.0  0.08396  0.26120  0.73007  1.0000
  H   H266      1.0  0.28395  0.05101  0.75686  1.0000
  C   C150      1.0  0.85095  0.25772  0.66427  1.0000
  H   H267      1.0  0.23446  0.98329  0.74420  1.0000
  H   H268      1.0  0.80117  0.25113  0.55325  1.0000
  C   C151      1.0  0.24151  0.82743  0.52862  1.0000
  Fe  Fe21      1.0  0.95490  0.10150  0.74905  1.0000
  C   C152      1.0  0.07287  0.10364  0.58513  1.0000
  C   C153      1.0  0.28907  0.98804  0.74902  1.0000
  H   H269      1.0  0.25099  0.86226  0.75680  1.0000
  C   C154      1.0  0.19355  0.85439  0.57408  1.0000
  C   C155      1.0  0.07078  0.24849  0.54171  1.0000
  S   S41       1.0  0.90988  0.16149  0.65315  1.0000
  H   H270      1.0  0.05201  0.05763  0.59092  1.0000
  C   C156      1.0  0.12748  0.83670  0.55365  1.0000
  H   H271      1.0  0.09022  0.24874  0.59958  1.0000
  H   H272      1.0  0.09040  0.85756  0.58884  1.0000
  H   H273      1.0  0.04106  0.15870  0.61320  1.0000
  C   C157      1.0  0.15227  0.08599  0.62789  1.0000
  H   H274      1.0  0.17773  0.13075  0.62907  1.0000
  H   H275      1.0  0.15208  0.08653  0.68341  1.0000
  H   H276      1.0  0.20697  0.88953  0.62473  1.0000
  H   H277      1.0  0.01097  0.27528  0.52875  1.0000
  C   C158      1.0  0.13141  0.23575  0.76894  1.0000
  C   C159      1.0  0.80557  0.97474  0.01342  1.0000
  S   S42       1.0  0.06786  0.81667  0.80136  1.0000
  H   H278      1.0  0.02064  0.89298  0.00639  1.0000
  H   H279      1.0  0.26653  0.88586  0.84989  1.0000
  H   H280      1.0  0.28765  0.81479  0.01070  1.0000
  H   H281      1.0  0.22763  0.81966  0.92507  1.0000
  Fe  Fe22      1.0  0.01938  0.94639  0.80880  1.0000
  H   H282      1.0  0.81004  0.20329  0.81107  1.0000
  S   S43       1.0  0.96411  0.17195  0.85743  1.0000
  H   H283      1.0  0.12367  0.83328  0.97024  1.0000
  C   C160      1.0  0.23705  0.80275  0.97739  1.0000
  C   C161      1.0  0.95182  0.80243  0.83871  1.0000
  H   H284      1.0  0.07360  0.18666  0.81149  1.0000
  C   C162      1.0  0.12544  0.19392  0.81584  1.0000
  S   S44       1.0  0.17774  0.11502  0.93003  1.0000
  C   C163      1.0  0.29257  0.84802  0.80623  1.0000
  H   H285      1.0  0.91769  0.84885  0.80858  1.0000
  S   S45       1.0  0.06773  0.01886  0.77333  1.0000
  S   S46       1.0  0.82498  0.12692  0.92988  1.0000
  C   C164      1.0  0.19819  0.24629  0.77386  1.0000
  C   C165      1.0  0.25905  0.21240  0.82413  1.0000
  C   C166      1.0  0.25260  0.17298  0.87239  1.0000
  C   C167      1.0  0.18569  0.16387  0.86870  1.0000
  Fe  Fe23      1.0  0.92038  0.08787  0.88107  1.0000
  Fe  Fe24      1.0  0.07371  0.08509  0.88313  1.0000
  S   S47       1.0  0.03127  0.00858  0.92043  1.0000
  H   H286      1.0  0.82429  0.92834  0.90734  1.0000
  H   H287      1.0  0.15937  0.91218  0.00730  1.0000
  C   C168      1.0  0.17035  0.84936  0.00877  1.0000
  H   H288      1.0  0.86180  0.78374  0.86328  1.0000
  S   S48       1.0  0.90529  0.02084  0.77154  1.0000
