data_TPA
_audit_creation_date              2023-02-07
_audit_creation_method            'Materials Studio'
_symmetry_space_group_name_H-M    'P1'
_symmetry_Int_Tables_number       1
_symmetry_cell_setting            triclinic
loop_
_symmetry_equiv_pos_as_xyz
  x,y,z
_cell_length_a                    30.0000
_cell_length_b                    30.0000
_cell_length_c                    30.0000
_cell_angle_alpha                 90.0000
_cell_angle_beta                  90.0000
_cell_angle_gamma                 90.0000
loop_
_atom_site_label
_atom_site_type_symbol
_atom_site_fract_x
_atom_site_fract_y
_atom_site_fract_z
_atom_site_U_iso_or_equiv
_atom_site_adp_type
_atom_site_occupancy
_atom_site_charge
N1	N	-0.061360	0.044360	0.002820	0.000000	Uiso	1.000000	-0.033144
C2	C	-0.079780	0.024290	-0.040450	0.000000	Uiso	1.000000	-0.044894
C3	C	-0.081980	0.020210	0.042990	0.000000	Uiso	1.000000	-0.044894
C4	C	-0.077440	0.093130	0.004970	0.000000	Uiso	1.000000	-0.044894
C5	C	-0.010260	0.044350	0.003980	0.000000	Uiso	1.000000	-0.044894
C6	C	0.017350	0.002240	-0.009480	0.000000	Uiso	1.000000	0.005018
C7	C	-0.066280	0.045870	-0.086000	0.000000	Uiso	1.000000	0.005018
C8	C	-0.065430	0.122470	0.046340	0.000000	Uiso	1.000000	0.005018
C9	C	-0.078920	-0.031440	0.048390	0.000000	Uiso	1.000000	0.005018
C10	C	-0.105100	-0.048490	0.089450	0.000000	Uiso	1.000000	-0.118257
C11	C	0.067710	0.012230	-0.014280	0.000000	Uiso	1.000000	-0.118257
C12	C	-0.084760	0.020410	-0.126790	0.000000	Uiso	1.000000	-0.118257
C13	C	-0.084060	0.170340	0.042430	0.000000	Uiso	1.000000	-0.118257
H14	H	-0.116310	0.024430	-0.039320	0.000000	Uiso	1.000000	0.084653
H15	H	-0.070310	-0.010750	-0.042730	0.000000	Uiso	1.000000	0.084653
H16	H	-0.067720	0.033680	0.073690	0.000000	Uiso	1.000000	0.084653
H17	H	-0.117710	0.027870	0.044250	0.000000	Uiso	1.000000	0.084653
H18	H	-0.113820	0.094340	0.001380	0.000000	Uiso	1.000000	0.084653
H19	H	-0.064090	0.111760	-0.023350	0.000000	Uiso	1.000000	0.084653
H20	H	0.001820	0.070970	-0.017860	0.000000	Uiso	1.000000	0.084653
H21	H	0.000900	0.053330	0.037530	0.000000	Uiso	1.000000	0.084653
H22	H	0.006110	-0.011120	-0.041300	0.000000	Uiso	1.000000	0.040416
H23	H	0.014140	-0.023770	0.015520	0.000000	Uiso	1.000000	0.040416
H24	H	-0.079130	0.079800	-0.088370	0.000000	Uiso	1.000000	0.040416
H25	H	-0.030050	0.047260	-0.089000	0.000000	Uiso	1.000000	0.040416
H26	H	-0.029260	0.124770	0.049840	0.000000	Uiso	1.000000	0.040416
H27	H	-0.078990	0.107980	0.076790	0.000000	Uiso	1.000000	0.040416
H28	H	-0.092300	-0.048420	0.019180	0.000000	Uiso	1.000000	0.040416
H29	H	-0.044480	-0.041670	0.053100	0.000000	Uiso	1.000000	0.040416
H30	H	-0.099670	-0.084220	0.093660	0.000000	Uiso	1.000000	0.055427
H31	H	-0.094050	-0.031640	0.119780	0.000000	Uiso	1.000000	0.055427
H32	H	-0.140790	-0.042660	0.085090	0.000000	Uiso	1.000000	0.055427
H33	H	0.086060	-0.018770	-0.019350	0.000000	Uiso	1.000000	0.055427
H34	H	0.073580	0.033920	-0.042950	0.000000	Uiso	1.000000	0.055427
H35	H	0.080680	0.028460	0.015610	0.000000	Uiso	1.000000	0.055427
H36	H	-0.073890	0.036870	-0.157410	0.000000	Uiso	1.000000	0.055427
H37	H	-0.072570	-0.013900	-0.127040	0.000000	Uiso	1.000000	0.055427
H38	H	-0.121160	0.020190	-0.126010	0.000000	Uiso	1.000000	0.055427
H39	H	-0.073950	0.189840	0.071450	0.000000	Uiso	1.000000	0.055427
H40	H	-0.071340	0.186650	0.012470	0.000000	Uiso	1.000000	0.055427
H41	H	-0.120430	0.169640	0.040990	0.000000	Uiso	1.000000	0.055427
loop_
_geom_bond_atom_site_label_1
_geom_bond_atom_site_label_2
_geom_bond_distance
_geom_bond_site_symmetry_2
_ccdc_geom_bond_type
N1     C2      1.534   .     S
N1     C3      1.536   .     S
N1     C4      1.542   .     S
N1     C5      1.533   .     S
C2     C7      1.565   .     S
C2     H14     1.097   .     S
C2     H15     1.091   .     S
C3     C9      1.561   .     S
C3     H16     1.093   .     S
C3     H17     1.097   .     S
C4     C8      1.564   .     S
C4     H18     1.097   .     S
C4     H19     1.093   .     S
C5     C6      1.564   .     S
C5     H20     1.095   .     S
C5     H21     1.094   .     S
C6     C11     1.547   .     S
C6     H22     1.089   .     S
C6     H23     1.087   .     S
C7     C12     1.545   .     S
C7     H24     1.091   .     S
C7     H25     1.092   .     S
C8     C13     1.545   .     S
C8     H26     1.092   .     S
C8     H27     1.090   .     S
C9     C10     1.548   .     S
C9     H28     1.090   .     S
C9     H29     1.087   .     S
C10    H30     1.092   .     S
C10    H31     1.092   .     S
C10    H32     1.093   .     S
C11    H33     1.091   .     S
C11    H34     1.093   .     S
C11    H35     1.092   .     S
C12    H36     1.093   .     S
C12    H37     1.092   .     S
C12    H38     1.092   .     S
C13    H39     1.092   .     S
C13    H40     1.092   .     S
C13    H41     1.092   .     S
