data_image0
_chemical_formula_structural       FeHSC3H3SH3C2H2CHCHCH3SC2HCH5CH4SH2SH4SHC2H3CHCH3CH4C3H5NH2NHC3H2CH3CH3C4SCSHCHCH4CH6FeCHC3HSCH3C2FeSH2C2FeCNH2CH3CNH2C2HCH2CH3SH3CHCH2C2H4CH8CNCHC2HCH2CHC2H2FeH3C2H3CSCSCH4CSCHCFeHCH2CHSCH2CH7C3H4C2SHC4H3CH3NHCHCHC2H2CH2CHC2H3C2H3CH6NHCH3CH2C2H5CH3C3HS2C2SCSFeSH3CHC5HC2FeHCH7CHSHNHCHCH7CHCH2Fe2HC3H2CHSH3FeS2H2FeSC2HC3H2FeH3C2HSNC4FeC2HC2H11CH9C2H3CS2H5C3H2C2H2CH4CHCH4SCFe2CSH2C2HSHCSHCH2SHFeHSHSFe2SHC3H2C2HCH6CH2FeHSH3C2H6SHNHSCH2CH2CHCHC4HC2HC3H8C
_chemical_formula_sum              "Fe20 H320 S40 C180 N10"
_cell_length_a       26.7587
_cell_length_b       28.7107
_cell_length_c       25.5788
_cell_angle_alpha    91.6228
_cell_angle_beta     85.859
_cell_angle_gamma    100.279

_space_group_name_H-M_alt    "P 1"
_space_group_IT_number       1

loop_
  _space_group_symop_operation_xyz
  'x, y, z'

loop_
  _atom_site_type_symbol
  _atom_site_label
  _atom_site_symmetry_multiplicity
  _atom_site_fract_x
  _atom_site_fract_y
  _atom_site_fract_z
  _atom_site_occupancy
  Fe  Fe1       1.0  0.23428  0.01955  0.12384  1.0000
  H   H1        1.0  0.46692  0.12297  0.23947  1.0000
  S   S1        1.0  0.22923  0.09471  0.10519  1.0000
  C   C1        1.0  0.44764  0.09923  0.20918  1.0000
  C   C2        1.0  0.48262  0.06649  0.18512  1.0000
  C   C3        1.0  0.12487  0.07262  0.11297  1.0000
  H   H2        1.0  0.31968  0.10825  0.32836  1.0000
  H   H3        1.0  0.35997  0.03962  0.34549  1.0000
  H   H4        1.0  0.31738  0.06804  0.27289  1.0000
  S   S2        1.0  0.25126  0.99623  0.20234  1.0000
  H   H5        1.0  0.12916  0.04364  0.13730  1.0000
  H   H6        1.0  0.26082  0.06940  0.31593  1.0000
  H   H7        1.0  0.04299  0.05497  0.11677  1.0000
  C   C4        1.0  0.30290  0.07231  0.31426  1.0000
  C   C5        1.0  0.07018  0.11696  0.07051  1.0000
  H   H8        1.0  0.41274  0.07756  0.22800  1.0000
  H   H9        1.0  0.03175  0.99373  0.32010  1.0000
  C   C6        1.0  0.31782  0.03496  0.34858  1.0000
  H   H10       1.0  0.43600  0.12085  0.17838  1.0000
  C   C7        1.0  0.16785  0.10388  0.09341  1.0000
  H   H11       1.0  0.15320  0.02630  0.37159  1.0000
  C   C8        1.0  0.07615  0.07922  0.10160  1.0000
  H   H12       1.0  0.46021  0.04265  0.15710  1.0000
  H   H13       1.0  0.49213  0.04522  0.21725  1.0000
  H   H14       1.0  0.02404  0.04113  0.36673  1.0000
  S   S3        1.0  0.29524  0.98667  0.08003  1.0000
  C   C9        1.0  0.13687  0.98957  0.36462  1.0000
  C   C10       1.0  0.16184  0.14241  0.06340  1.0000
  H   H15       1.0  0.16962  0.98833  0.28514  1.0000
  C   C11       1.0  0.29370  0.98438  0.33061  1.0000
  H   H16       1.0  0.25566  0.99636  0.50876  1.0000
  H   H17       1.0  0.30497  0.04252  0.38962  1.0000
  H   H18       1.0  0.08878  0.40119  0.71479  1.0000
  H   H19       1.0  0.15391  0.29359  0.64190  1.0000
  H   H20       1.0  0.20294  0.27819  0.67943  1.0000
  C   C12       1.0  0.16160  0.27908  0.67973  1.0000
  H   H21       1.0  0.02511  0.05661  0.67026  1.0000
  H   H22       1.0  0.14036  0.24218  0.68351  1.0000
  H   H23       1.0  0.07819  0.31907  0.68837  1.0000
  H   H24       1.0  0.16910  0.34579  0.72066  1.0000
  S   S4        1.0  0.09416  0.99139  0.46509  1.0000
  H   H25       1.0  0.22948  0.99130  0.41704  1.0000
  H   H26       1.0  0.17323  0.09194  0.89342  1.0000
  S   S5        1.0  0.03985  0.18351  0.80451  1.0000
  H   H27       1.0  0.12755  0.00772  0.02981  1.0000
  H   H28       1.0  0.12071  0.98714  0.86327  1.0000
  H   H29       1.0  0.12275  0.14983  0.93402  1.0000
  H   H30       1.0  0.12453  0.15010  0.86353  1.0000
  S   S6        1.0  0.04932  0.22951  0.94629  1.0000
  H   H31       1.0  0.29501  0.07285  0.98952  1.0000
  C   C13       1.0  0.21663  0.04388  0.97544  1.0000
  C   C14       1.0  0.13804  0.32595  0.89459  1.0000
  H   H32       1.0  0.06792  0.12158  0.90016  1.0000
  H   H33       1.0  0.07023  0.27307  0.73528  1.0000
  H   H34       1.0  0.13930  0.47948  0.80364  1.0000
  C   C15       1.0  0.03179  0.11377  0.72799  1.0000
  H   H35       1.0  0.12544  0.38913  0.85951  1.0000
  C   C16       1.0  0.11112  0.05160  0.94428  1.0000
  H   H36       1.0  0.28613  0.01460  0.95966  1.0000
  H   H37       1.0  0.11909  0.06380  0.85905  1.0000
  H   H38       1.0  0.10850  0.17853  0.02844  1.0000
  C   C17       1.0  0.13110  0.08248  0.89583  1.0000
  H   H39       1.0  0.19834  0.02055  0.89616  1.0000
  H   H40       1.0  0.20638  0.07964  0.97629  1.0000
  H   H41       1.0  0.14131  0.28878  0.88398  1.0000
  H   H42       1.0  0.03121  0.43532  0.77477  1.0000
  C   C18       1.0  0.11020  0.12873  0.89877  1.0000
  C   C19       1.0  0.12722  0.35216  0.84676  1.0000
  C   C20       1.0  0.06834  0.43174  0.78967  1.0000
  H   H43       1.0  0.21039  0.02959  0.01564  1.0000
  H   H44       1.0  0.16048  0.35348  0.81833  1.0000
  H   H45       1.0  0.12161  0.07294  0.98009  1.0000
  H   H46       1.0  0.06885  0.04669  0.94559  1.0000
  H   H47       1.0  0.17439  0.34376  0.91015  1.0000
  N   N1        1.0  0.06803  0.34304  0.76865  1.0000
  H   H48       1.0  0.28272  0.06586  0.92105  1.0000
  H   H49       1.0  0.10732  0.32634  0.92601  1.0000
  N   N2        1.0  0.12821  0.00432  0.94546  1.0000
  H   H50       1.0  0.07300  0.28954  0.82525  1.0000
  C   C21       1.0  0.07633  0.32873  0.82350  1.0000
  C   C22       1.0  0.18534  0.00962  0.93701  1.0000
  C   C23       1.0  0.27361  0.04952  0.96020  1.0000
  H   H51       1.0  0.15580  0.29400  0.76188  1.0000
  H   H52       1.0  0.03650  0.00309  0.01360  1.0000
  C   C24       1.0  0.01148  0.33859  0.76280  1.0000
  H   H53       1.0  0.07294  0.12116  0.72393  1.0000
  H   H54       1.0  0.13340  0.40032  0.76175  1.0000
  H   H55       1.0  0.19502  0.16695  0.04863  1.0000
  C   C25       1.0  0.10254  0.48037  0.78646  1.0000
  H   H56       1.0  0.06146  0.42200  0.83150  1.0000
  H   H57       1.0  0.04660  0.45729  0.98590  1.0000
  H   H58       1.0  0.04558  0.33688  0.85222  1.0000
  C   C26       1.0  0.11300  0.14892  0.05181  1.0000
  C   C27       1.0  0.02198  0.44915  0.95390  1.0000
  C   C28       1.0  0.09195  0.39371  0.75684  1.0000
  C   C29       1.0  0.14611  0.30990  0.72571  1.0000
  S   S7        1.0  0.01909  0.35636  0.97886  1.0000
  C   C30       1.0  0.08834  0.31059  0.72812  1.0000
  S   S8        1.0  0.25116  0.89041  0.14761  1.0000
  H   H59       1.0  0.17345  0.75272  0.23673  1.0000
  C   C31       1.0  0.15615  0.76314  0.20169  1.0000
  H   H60       1.0  0.08003  0.73004  0.22475  1.0000
  C   C32       1.0  0.10037  0.76632  0.21564  1.0000
  H   H61       1.0  0.23204  0.90243  0.34490  1.0000
  H   H62       1.0  0.03576  0.69988  0.13361  1.0000
  H   H63       1.0  0.15243  0.73552  0.08227  1.0000
  H   H64       1.0  0.45826  0.86099  0.07177  1.0000
  C   C33       1.0  0.07676  0.78772  0.17014  1.0000
  H   H65       1.0  0.09841  0.82426  0.16345  1.0000
  H   H66       1.0  0.09948  0.78869  0.25160  1.0000
  H   H67       1.0  0.32658  0.87922  0.27957  1.0000
  H   H68       1.0  0.44210  0.89786  0.31703  1.0000
  H   H69       1.0  0.21318  0.83566  0.27869  1.0000
  H   H70       1.0  0.15931  0.73589  0.17065  1.0000
  Fe  Fe2       1.0  0.23331  0.92284  0.07379  1.0000
  C   C34       1.0  0.36114  0.94273  0.35321  1.0000
  H   H71       1.0  0.06799  0.82515  0.07248  1.0000
  C   C35       1.0  0.42324  0.90537  0.12737  1.0000
  C   C36       1.0  0.28598  0.88244  0.28655  1.0000
  C   C37       1.0  0.25444  0.83403  0.27456  1.0000
  H   H72       1.0  0.25192  0.98276  0.32977  1.0000
  S   S9        1.0  0.17178  0.95764  0.11287  1.0000
  C   C38       1.0  0.42896  0.93306  0.17306  1.0000
  H   H73       1.0  0.17782  0.79787  0.18815  1.0000
  H   H74       1.0  0.44766  0.86898  0.37740  1.0000
  H   H75       1.0  0.38824  0.90148  0.10766  1.0000
  C   C39       1.0  0.46294  0.88252  0.10709  1.0000
  C   C40       1.0  0.37903  0.89935  0.37576  1.0000
  Fe  Fe3       1.0  0.30744  0.95762  0.15797  1.0000
  S   S10       1.0  0.13689  0.89211  0.24655  1.0000
  H   H76       1.0  0.27744  0.90794  0.25820  1.0000
  H   H77       1.0  0.07759  0.85832  0.33937  1.0000
  C   C41       1.0  0.09397  0.89504  0.34615  1.0000
  C   C42       1.0  0.27290  0.89883  0.34340  1.0000
  Fe  Fe4       1.0  0.19448  0.93097  0.18737  1.0000
  C   C43       1.0  0.47442  0.93760  0.19845  1.0000
  N   N3        1.0  0.30502  0.94416  0.36176  1.0000
  H   H78       1.0  0.47871  0.95836  0.23428  1.0000
  H   H79       1.0  0.26433  0.82303  0.23371  1.0000
  C   C44       1.0  0.12509  0.92068  0.30660  1.0000
  H   H80       1.0  0.03763  0.85457  0.22093  1.0000
  H   H81       1.0  0.08587  0.76755  0.13440  1.0000
  H   H82       1.0  0.26249  0.80695  0.30138  1.0000
  C   C45       1.0  0.50898  0.88811  0.13160  1.0000
  N   N4        1.0  0.02043  0.78885  0.17741  1.0000
  H   H83       1.0  0.37353  0.94495  0.31070  1.0000
  H   H84       1.0  0.27418  0.86939  0.37038  1.0000
  C   C46       1.0  0.14634  0.96806  0.31575  1.0000
  C   C47       1.0  0.02912  0.80340  0.07602  1.0000
  H   H85       1.0  0.05835  0.97318  0.09713  1.0000
  C   C48       1.0  0.43544  0.89996  0.36039  1.0000
  H   H86       1.0  0.02322  0.80376  0.26117  1.0000
  H   H87       1.0  0.03295  0.76608  0.06911  1.0000
  C   C49       1.0  0.01236  0.81938  0.22532  1.0000
  H   H88       1.0  0.38395  0.97455  0.37119  1.0000
  H   H89       1.0  0.45911  0.93275  0.37530  1.0000
  H   H90       1.0  0.20369  0.81649  0.07598  1.0000
  S   S11       1.0  0.38070  0.96330  0.19903  1.0000
  H   H91       1.0  0.35776  0.86547  0.36085  1.0000
  H   H92       1.0  0.30765  0.98074  0.28897  1.0000
  H   H93       1.0  0.05961  0.91563  0.06737  1.0000
  C   C50       1.0  0.04257  0.94810  0.06614  1.0000
  H   H94       1.0  0.06123  0.89625  0.42549  1.0000
  C   C51       1.0  0.14404  0.76004  0.62847  1.0000
  H   H95       1.0  0.29737  0.91909  0.44125  1.0000
  H   H96       1.0  0.09651  0.81007  0.66245  1.0000
  C   C52       1.0  0.09642  0.69842  0.68520  1.0000
  C   C53       1.0  0.23731  0.95898  0.43520  1.0000
  H   H97       1.0  0.13957  0.84665  0.58044  1.0000
  H   H98       1.0  0.24915  0.76919  0.67406  1.0000
  H   H99       1.0  0.24288  0.74351  0.60945  1.0000
  H   H100      1.0  0.14268  0.73575  0.59357  1.0000
  C   C54       1.0  0.10487  0.81899  0.57918  1.0000
  H   H101      1.0  0.04368  0.60496  0.69303  1.0000
  H   H102      1.0  0.18009  0.67723  0.63882  1.0000
  H   H103      1.0  0.07131  0.83692  0.57886  1.0000
  H   H104      1.0  0.37391  0.89969  0.41920  1.0000
  H   H105      1.0  0.31941  0.98064  0.43601  1.0000
  H   H106      1.0  0.17919  0.78704  0.62190  1.0000
  H   H107      1.0  0.10688  0.79769  0.54240  1.0000
  H   H108      1.0  0.08959  0.67663  0.64876  1.0000
  C   C55       1.0  0.09894  0.78724  0.62703  1.0000
  N   N5        1.0  0.14609  0.73289  0.67795  1.0000
  C   C56       1.0  0.10551  0.96396  0.40414  1.0000
  H   H109      1.0  0.06397  0.71767  0.69149  1.0000
  C   C57       1.0  0.18920  0.70546  0.66928  1.0000
  C   C58       1.0  0.28510  0.70831  0.65905  1.0000
  H   H110      1.0  0.06236  0.76228  0.62450  1.0000
  C   C59       1.0  0.24176  0.73523  0.65176  1.0000
  H   H111      1.0  0.27940  0.67426  0.63665  1.0000
  H   H112      1.0  0.20861  0.92851  0.42307  1.0000
  C   C60       1.0  0.22906  0.96512  0.49457  1.0000
  H   H113      1.0  0.32188  0.72992  0.64451  1.0000
  C   C61       1.0  0.29229  0.95078  0.41958  1.0000
  C   C62       1.0  0.08428  0.91659  0.39482  1.0000
  H   H114      1.0  0.23458  0.93295  0.51493  1.0000
  H   H115      1.0  0.17587  0.80218  0.71070  1.0000
  Fe  Fe5       1.0  0.01783  0.96321  0.50680  1.0000
  H   H116      1.0  0.18953  0.97088  0.50471  1.0000
  H   H117      1.0  0.28729  0.70111  0.70121  1.0000
  H   H118      1.0  0.19406  0.68618  0.70496  1.0000
  C   C63       1.0  0.11697  0.73941  0.01040  1.0000
  C   C64       1.0  0.11544  0.76649  0.96610  1.0000
  H   H119      1.0  0.22080  0.75522  0.76119  1.0000
  H   H120      1.0  0.14491  0.83218  0.92701  1.0000
  H   H121      1.0  0.09094  0.75271  0.93538  1.0000
  C   C65       1.0  0.14585  0.81163  0.96147  1.0000
  S   S12       1.0  0.21266  0.88791  0.99630  1.0000
  C   C66       1.0  0.17687  0.83034  0.00163  1.0000
  S   S13       1.0  0.04776  0.64977  0.87393  1.0000
  C   C67       1.0  0.08733  0.89315  0.85553  1.0000
  H   H122      1.0  0.18854  0.82334  0.80836  1.0000
  H   H123      1.0  0.03353  0.84910  0.74262  1.0000
  H   H124      1.0  0.19486  0.77612  0.85108  1.0000
  H   H125      1.0  0.13285  0.78231  0.83284  1.0000
  C   C68       1.0  0.14989  0.75718  0.04915  1.0000
  S   S14       1.0  0.07589  0.68478  0.01996  1.0000
  C   C69       1.0  0.11105  0.92048  0.90241  1.0000
  H   H126      1.0  0.10968  0.49194  0.74512  1.0000
  C   C70       1.0  0.17352  0.78587  0.81857  1.0000
  Fe  Fe6       1.0  0.02181  0.66707  0.95621  1.0000
  H   H127      1.0  0.15182  0.91729  0.90001  1.0000
  C   C71       1.0  0.15301  0.76760  0.72359  1.0000
  H   H128      1.0  0.16420  0.71647  0.78390  1.0000
  H   H129      1.0  0.08603  0.68477  0.76908  1.0000
  C   C72       1.0  0.17895  0.80291  0.04546  1.0000
  H   H130      1.0  0.09244  0.90258  0.93844  1.0000
  S   S15       1.0  0.02668  0.76508  0.80069  1.0000
  C   C73       1.0  0.17943  0.75303  0.77128  1.0000
  H   H131      1.0  0.12892  0.95055  0.00305  1.0000
  H   H132      1.0  0.09028  0.85517  0.85786  1.0000
  C   C74       1.0  0.05384  0.97068  0.01224  1.0000
  H   H133      1.0  0.03833  0.60295  0.76348  1.0000
  H   H134      1.0  0.06296  0.97401  0.90237  1.0000
  H   H135      1.0  0.10737  0.90722  0.81818  1.0000
  H   H136      1.0  0.04653  0.89568  0.85541  1.0000
  H   H137      1.0  0.11565  0.77631  0.73816  1.0000
  H   H138      1.0  0.03461  0.94543  0.98334  1.0000
  H   H139      1.0  0.02677  0.52255  0.93378  1.0000
  C   C75       1.0  0.10440  0.97315  0.90214  1.0000
  C   C76       1.0  0.04203  0.62682  0.72942  1.0000
  C   C77       1.0  0.09017  0.66441  0.73204  1.0000
  H   H140      1.0  0.08340  0.50662  0.80913  1.0000
  H   H141      1.0  0.12249  0.64533  0.73337  1.0000
  H   H142      1.0  0.19749  0.97493  0.94124  1.0000
  H   H143      1.0  0.02121  0.81518  0.99387  1.0000
  C   C78       1.0  0.01065  0.48621  0.92451  1.0000
  C   C79       1.0  0.11206  0.98288  0.99845  1.0000
  S   S16       1.0  0.74153  0.04804  0.16084  1.0000
  H   H144      1.0  0.82220  0.12799  0.14420  1.0000
  C   C80       1.0  0.62760  0.03932  0.26630  1.0000
  C   C81       1.0  0.95519  0.01077  0.32803  1.0000
  C   C82       1.0  0.80412  0.11972  0.10780  1.0000
  C   C83       1.0  0.76406  0.08125  0.10472  1.0000
  H   H145      1.0  0.75257  0.08635  0.27956  1.0000
  H   H146      1.0  0.51513  0.00564  0.11596  1.0000
  H   H147      1.0  0.86397  0.03518  0.31927  1.0000
  C   C84       1.0  0.94238  0.13754  0.22621  1.0000
  H   H148      1.0  0.77831  0.06356  0.33478  1.0000
  H   H149      1.0  0.60908  0.10088  0.06467  1.0000
  H   H150      1.0  0.90543  0.07998  0.17864  1.0000
  N   N6        1.0  0.91806  0.04905  0.25218  1.0000
  H   H151      1.0  0.90611  0.14787  0.24195  1.0000
  C   C85       1.0  0.67826  0.17672  0.09969  1.0000
  H   H152      1.0  0.00084  0.16306  0.16471  1.0000
  C   C86       1.0  0.59021  0.04054  0.17824  1.0000
  H   H153      1.0  0.96256  0.00195  0.16587  1.0000
  C   C87       1.0  0.78807  0.08572  0.29934  1.0000
  C   C88       1.0  0.61340  0.07073  0.22446  1.0000
  H   H154      1.0  0.64412  0.06173  0.29907  1.0000
  H   H155      1.0  0.80695  0.02960  0.24899  1.0000
  C   C89       1.0  0.87535  0.06200  0.28815  1.0000
  H   H156      1.0  0.87080  0.00405  0.19900  1.0000
  H   H157      1.0  0.83353  0.08825  0.22675  1.0000
  C   C90       1.0  0.82585  0.06539  0.26159  1.0000
  H   H158      1.0  0.65655  0.01866  0.24966  1.0000
  C   C91       1.0  0.53132  0.09507  0.15687  1.0000
  C   C92       1.0  0.93384  0.08463  0.20896  1.0000
  H   H159      1.0  0.80426  0.12249  0.31128  1.0000
  H   H160      1.0  0.54706  0.12305  0.18492  1.0000
  H   H161      1.0  0.92986  0.02138  0.36081  1.0000
  C   C93       1.0  0.89995  0.00133  0.22725  1.0000
  C   C94       1.0  0.61548  0.09900  0.10712  1.0000
  H   H162      1.0  0.71046  0.16129  0.11252  1.0000
  H   H163      1.0  0.62052  0.02129  0.16165  1.0000
  H   H164      1.0  0.88830  0.09566  0.30983  1.0000
  C   C95       1.0  0.96327  0.04818  0.28400  1.0000
  H   H165      1.0  0.64895  0.09447  0.21051  1.0000
  H   H166      1.0  0.96987  0.07847  0.18752  1.0000
  H   H167      1.0  0.93637  0.16320  0.14761  1.0000
  H   H168      1.0  0.96635  0.20727  0.19246  1.0000
  H   H169      1.0  0.65086  0.08390  0.10815  1.0000
  H   H170      1.0  0.63085  0.15476  0.16885  1.0000
  N   N7        1.0  0.57130  0.06700  0.13577  1.0000
  H   H171      1.0  0.99726  0.04338  0.25800  1.0000
  C   C96       1.0  0.88332  0.03160  0.06218  1.0000
  H   H172      1.0  0.55948  0.01242  0.19432  1.0000
  H   H173      1.0  0.59349  0.01452  0.28210  1.0000
  H   H174      1.0  0.58633  0.09197  0.24365  1.0000
  C   C97       1.0  0.62792  0.15147  0.12592  1.0000
  H   H175      1.0  0.89833  0.99828  0.06570  1.0000
  H   H176      1.0  0.97024  0.14492  0.25673  1.0000
  C   C98       1.0  0.96266  0.16956  0.17983  1.0000
  C   C99       1.0  0.54684  0.03108  0.09668  1.0000
  H   H177      1.0  0.90778  0.06035  0.08320  1.0000
  H   H178      1.0  0.84413  0.02721  0.08110  1.0000
  H   H179      1.0  0.59757  0.17066  0.11540  1.0000
  H   H180      1.0  0.97477  0.08300  0.30387  1.0000
  H   H181      1.0  0.51879  0.11416  0.12418  1.0000
  C   C100      1.0  0.74065  0.07114  0.05758  1.0000
  H   H182      1.0  0.52954  0.04924  0.06645  1.0000
  H   H183      1.0  0.85230  0.17691  0.06625  1.0000
  H   H184      1.0  0.68460  0.21483  0.11106  1.0000
  C   C101      1.0  0.82120  0.14751  0.06361  1.0000
  C   C102      1.0  0.58222  0.99965  0.06822  1.0000
  C   C103      1.0  0.00548  0.00652  0.35060  1.0000
  H   H185      1.0  0.67800  0.17377  0.05629  1.0000
  S   S17       1.0  0.91552  0.01905  0.67093  1.0000
  S   S18       1.0  0.95977  0.01088  0.51762  1.0000
  C   C104      1.0  0.95162  0.06750  0.70296  1.0000
  C   C105      1.0  0.00484  0.07742  0.69738  1.0000
  S   S19       1.0  0.94481  0.25095  0.89572  1.0000
  C   C106      1.0  0.75571  0.10065  0.01443  1.0000
  S   S20       1.0  0.94527  0.22923  0.02208  1.0000
  Fe  Fe7       1.0  0.90244  0.19816  0.95379  1.0000
  S   S21       1.0  0.81753  0.17253  0.96100  1.0000
  H   H186      1.0  0.87286  0.07988  0.00339  1.0000
  H   H187      1.0  0.83128  0.14494  0.85345  1.0000
  H   H188      1.0  0.93491  0.42065  0.83852  1.0000
  C   C107      1.0  0.88381  0.04451  0.00453  1.0000
  H   H189      1.0  0.73580  0.09410  0.97892  1.0000
  C   C108      1.0  0.96998  0.39166  0.90068  1.0000
  C   C109      1.0  0.92311  0.28767  0.76903  1.0000
  C   C110      1.0  0.98033  0.28758  0.76246  1.0000
  C   C111      1.0  0.95251  0.13026  0.76942  1.0000
  C   C112      1.0  0.80547  0.11317  0.83928  1.0000
  H   H190      1.0  0.93204  0.15065  0.79685  1.0000
  C   C113      1.0  0.82811  0.06876  0.84649  1.0000
  C   C114      1.0  0.90191  0.01265  0.89421  1.0000
  Fe  Fe8       1.0  0.99737  0.17788  0.99875  1.0000
  H   H191      1.0  0.95375  0.35542  0.89162  1.0000
  C   C115      1.0  0.95918  0.42870  0.87079  1.0000
  H   H192      1.0  0.80126  0.11786  0.79697  1.0000
  H   H193      1.0  0.88459  0.08821  0.74075  1.0000
  H   H194      1.0  0.99091  0.26665  0.79419  1.0000
  H   H195      1.0  0.98934  0.98561  0.84427  1.0000
  H   H196      1.0  0.85578  0.08824  0.92143  1.0000
  H   H197      1.0  0.73921  0.99534  0.90032  1.0000
  H   H198      1.0  0.91300  0.30516  0.80665  1.0000
  C   C116      1.0  0.83022  0.05767  0.90483  1.0000
  H   H199      1.0  0.79246  0.05880  0.92506  1.0000
  S   S22       1.0  0.95238  0.14473  0.93283  1.0000
  H   H200      1.0  0.80518  0.03928  0.82520  1.0000
  N   N8        1.0  0.84758  0.01208  0.91602  1.0000
  H   H201      1.0  0.90209  0.25061  0.76924  1.0000
  C   C117      1.0  0.79684  0.13824  0.01689  1.0000
  H   H202      1.0  0.80782  0.00944  0.99348  1.0000
  C   C118      1.0  0.97966  0.47610  0.88244  1.0000
  H   H203      1.0  0.92358  0.04735  0.98773  1.0000
  H   H204      1.0  0.76748  0.11047  0.86070  1.0000
  H   H205      1.0  0.86739  0.07605  0.82871  1.0000
  H   H206      1.0  0.00448  0.35522  0.72575  1.0000
  H   H207      1.0  0.55067  0.99608  0.99163  1.0000
  H   H208      1.0  0.92416  0.04921  0.89603  1.0000
  H   H209      1.0  0.99382  0.35839  0.79500  1.0000
  C   C119      1.0  0.84618  0.00722  0.97489  1.0000
  H   H210      1.0  0.98771  0.26935  0.72451  1.0000
  C   C120      1.0  0.92573  0.09481  0.73798  1.0000
  H   H211      1.0  0.98138  0.04173  0.81840  1.0000
  H   H212      1.0  0.88908  0.00841  0.80881  1.0000
  Fe  Fe9       1.0  0.99216  0.27810  0.96260  1.0000
  Fe  Fe10      1.0  0.99947  0.20004  0.88193  1.0000
  H   H213      1.0  0.61856  0.02071  0.05221  1.0000
  C   C121      1.0  0.00197  0.40173  0.94202  1.0000
  C   C122      1.0  0.00565  0.13960  0.76479  1.0000
  C   C123      1.0  0.96664  0.00300  0.81866  1.0000
  H   H214      1.0  0.92143  0.99104  0.91896  1.0000
  H   H215      1.0  0.97144  0.98909  0.77795  1.0000
  C   C124      1.0  0.91027  0.99314  0.83756  1.0000
  H   H216      1.0  0.91092  0.30648  0.73614  1.0000
  S   S23       1.0  0.00863  0.12198  0.05499  1.0000
  H   H217      1.0  0.70960  0.04172  0.05497  1.0000
  H   H218      1.0  0.83360  0.76213  0.22652  1.0000
  H   H219      1.0  0.69384  0.65346  0.09324  1.0000
  Fe  Fe11      1.0  0.72971  0.87480  0.18649  1.0000
  S   S24       1.0  0.69602  0.83513  0.11665  1.0000
  S   S25       1.0  0.76431  0.83598  0.24613  1.0000
  H   H220      1.0  0.99682  0.72656  0.22498  1.0000
  H   H221      1.0  0.94936  0.91353  0.15387  1.0000
  Fe  Fe12      1.0  0.63992  0.88537  0.12368  1.0000
  S   S26       1.0  0.55843  0.86009  0.10390  1.0000
  C   C125      1.0  0.78661  0.61378  0.11011  1.0000
  C   C126      1.0  0.84316  0.71174  0.28345  1.0000
  H   H222      1.0  0.82397  0.67690  0.29912  1.0000
  C   C127      1.0  0.81450  0.72615  0.23868  1.0000
  C   C128      1.0  0.78904  0.87222  0.29820  1.0000
  C   C129      1.0  0.77965  0.91844  0.30439  1.0000
  H   H223      1.0  0.84369  0.73841  0.31581  1.0000
  H   H224      1.0  0.79271  0.54825  0.06746  1.0000
  Fe  Fe13      1.0  0.74569  0.89211  0.06960  1.0000
  H   H225      1.0  0.97316  0.62691  0.12902  1.0000
  H   H226      1.0  0.77687  0.67509  0.06640  1.0000
  H   H227      1.0  0.91734  0.87383  0.28903  1.0000
  C   C130      1.0  0.91860  0.93192  0.17050  1.0000
  C   C131      1.0  0.83803  0.88335  0.37587  1.0000
  H   H228      1.0  0.85231  0.83824  0.15450  1.0000
  S   S27       1.0  0.66894  0.91999  0.19831  1.0000
  N   N9        1.0  0.78289  0.69794  0.14746  1.0000
  C   C132      1.0  0.72732  0.68452  0.16565  1.0000
  C   C133      1.0  0.81444  0.69037  0.19204  1.0000
  C   C134      1.0  0.79267  0.74904  0.13141  1.0000
  C   C135      1.0  0.79674  0.66797  0.10116  1.0000
  Fe  Fe14      1.0  0.72080  0.97015  0.14392  1.0000
  C   C136      1.0  0.68874  0.68173  0.12259  1.0000
  C   C137      1.0  0.84854  0.77036  0.11390  1.0000
  H   H229      1.0  0.94094  0.84086  0.20418  1.0000
  C   C138      1.0  0.63398  0.67044  0.14640  1.0000
  C   C139      1.0  0.85627  0.82436  0.11375  1.0000
  H   H230      1.0  0.71673  0.71047  0.19582  1.0000
  H   H231      1.0  0.71984  0.64990  0.18588  1.0000
  H   H232      1.0  0.80106  0.65449  0.20860  1.0000
  H   H233      1.0  0.85466  0.69047  0.17771  1.0000
  H   H234      1.0  0.77862  0.77157  0.16325  1.0000
  H   H235      1.0  0.77019  0.75395  0.09791  1.0000
  H   H236      1.0  0.89395  0.90845  0.19941  1.0000
  H   H237      1.0  0.83796  0.67787  0.08877  1.0000
  H   H238      1.0  0.82750  0.83645  0.09084  1.0000
  H   H239      1.0  0.81086  0.60472  0.14037  1.0000
  H   H240      1.0  0.69288  0.71570  0.10182  1.0000
  C   C140      1.0  0.51460  0.91567  0.17746  1.0000
  H   H241      1.0  0.85812  0.75779  0.07356  1.0000
  H   H242      1.0  0.87585  0.76033  0.14002  1.0000
  H   H243      1.0  0.77518  0.72816  0.25432  1.0000
  H   H244      1.0  0.75699  0.93218  0.27717  1.0000
  H   H245      1.0  0.54964  0.91952  0.19703  1.0000
  H   H246      1.0  0.88309  0.70966  0.26992  1.0000
  H   H247      1.0  0.96141  0.80072  0.12840  1.0000
  H   H248      1.0  0.82524  0.81884  0.32958  1.0000
  H   H249      1.0  0.60717  0.66838  0.11487  1.0000
  C   C141      1.0  0.81811  0.85464  0.33407  1.0000
  C   C142      1.0  0.79913  0.58683  0.05988  1.0000
  H   H250      1.0  0.94796  0.74212  0.19025  1.0000
  H   H251      1.0  0.74620  0.60059  0.12283  1.0000
  H   H252      1.0  0.62609  0.69872  0.17477  1.0000
  C   C143      1.0  0.95729  0.82832  0.23855  1.0000
  S   S28       1.0  0.78365  0.92810  0.13857  1.0000
  S   S29       1.0  0.68759  0.93921  0.07022  1.0000
  H   H253      1.0  0.62700  0.63591  0.16662  1.0000
  H   H254      1.0  0.93207  0.79539  0.25237  1.0000
  H   H255      1.0  0.89564  0.93891  0.13811  1.0000
  H   H256      1.0  0.97755  0.71015  0.10777  1.0000
  H   H257      1.0  0.89464  0.83919  0.09592  1.0000
  C   C144      1.0  0.79828  0.94655  0.34689  1.0000
  C   C145      1.0  0.95630  0.86571  0.28229  1.0000
  C   C146      1.0  0.99531  0.70220  0.14362  1.0000
  H   H258      1.0  0.92751  0.65221  0.17075  1.0000
  H   H259      1.0  0.00078  0.93865  0.07448  1.0000
  C   C147      1.0  0.96875  0.65300  0.16124  1.0000
  C   C148      1.0  0.98917  0.74023  0.18663  1.0000
  H   H260      1.0  0.98622  0.64219  0.19604  1.0000
  H   H261      1.0  0.96755  0.85268  0.31944  1.0000
  C   C149      1.0  0.00309  0.81177  0.13088  1.0000
  H   H262      1.0  0.96966  0.97005  0.22367  1.0000
  H   H263      1.0  0.98260  0.89907  0.27158  1.0000
  H   H264      1.0  0.87963  0.97583  0.25704  1.0000
  H   H265      1.0  0.00953  0.85105  0.13606  1.0000
  C   C150      1.0  0.82775  0.92932  0.38253  1.0000
  H   H266      1.0  0.59084  0.97360  0.09597  1.0000
  C   C151      1.0  0.94178  0.97829  0.19684  1.0000
  H   H267      1.0  0.93798  0.97504  0.31405  1.0000
  H   H268      1.0  0.78925  0.98162  0.35262  1.0000
  H   H269      1.0  0.99813  0.98070  0.38302  1.0000
  H   H270      1.0  0.77739  0.82963  0.63070  1.0000
  S   S30       1.0  0.96393  0.90155  0.47525  1.0000
  C   C152      1.0  0.98956  0.83065  0.67554  1.0000
  Fe  Fe15      1.0  0.94861  0.88105  0.56024  1.0000
  Fe  Fe16      1.0  0.90491  0.94761  0.49108  1.0000
  C   C153      1.0  0.95993  0.79444  0.64805  1.0000
  S   S31       1.0  0.88392  0.92114  0.57291  1.0000
  H   H271      1.0  0.85637  0.83913  0.67913  1.0000
  H   H272      1.0  0.92486  0.72075  0.64842  1.0000
  C   C154      1.0  0.94806  0.74891  0.66937  1.0000
  C   C155      1.0  0.82940  0.80484  0.68101  1.0000
  H   H273      1.0  0.82682  0.80350  0.59633  1.0000
  S   S32       1.0  0.93845  0.80488  0.58664  1.0000
  H   H274      1.0  0.85192  0.77601  0.68021  1.0000
  C   C156      1.0  0.79981  0.80064  0.63164  1.0000
  S   S33       1.0  0.85021  0.96648  0.43486  1.0000
  H   H275      1.0  0.77393  0.76588  0.62990  1.0000
  C   C157      1.0  0.96623  0.73969  0.71762  1.0000
  H   H276      1.0  0.99875  0.86576  0.65985  1.0000
  H   H277      1.0  0.86046  0.86975  0.40344  1.0000
  S   S34       1.0  0.00720  0.93958  0.59068  1.0000
  H   H278      1.0  0.80580  0.70951  0.71684  1.0000
  Fe  Fe17      1.0  0.94345  0.98132  0.59851  1.0000
  H   H279      1.0  0.83425  0.74156  0.82902  1.0000
  S   S35       1.0  0.92887  0.64591  0.84508  1.0000
  H   H280      1.0  0.79652  0.80504  0.86544  1.0000
  S   S36       1.0  0.95255  0.60959  0.96094  1.0000
  Fe  Fe18      1.0  0.97529  0.59580  0.87645  1.0000
  Fe  Fe19      1.0  0.91196  0.66392  0.92958  1.0000
  S   S37       1.0  0.83218  0.67241  0.95851  1.0000
  H   H281      1.0  0.96215  0.79239  0.03037  1.0000
  C   C158      1.0  0.82132  0.73078  0.96682  1.0000
  C   C159      1.0  0.77334  0.73912  0.98627  1.0000
  C   C160      1.0  0.81756  0.66067  0.77426  1.0000
  H   H282      1.0  0.88820  0.80824  0.85586  1.0000
  H   H283      1.0  0.75977  0.70323  0.77148  1.0000
  C   C161      1.0  0.76523  0.78558  0.99653  1.0000
  C   C162      1.0  0.72896  0.77033  0.83293  1.0000
  H   H284      1.0  0.94743  0.89829  0.80405  1.0000
  C   C163      1.0  0.80086  0.70666  0.76012  1.0000
  H   H285      1.0  0.72823  0.79191  0.01179  1.0000
  H   H286      1.0  0.79393  0.63016  0.75497  1.0000
  H   H287      1.0  0.77435  0.59302  0.02867  1.0000
  H   H288      1.0  0.83962  0.59824  0.04567  1.0000
  H   H289      1.0  0.67896  0.82001  0.85854  1.0000
  H   H290      1.0  0.68355  0.91735  0.90414  1.0000
  C   C164      1.0  0.86350  0.83590  0.78429  1.0000
  H   H291      1.0  0.89385  0.82864  0.75454  1.0000
  H   H292      1.0  0.82570  0.93665  0.90512  1.0000
  Fe  Fe20      1.0  0.99900  0.70099  0.85069  1.0000
  H   H293      1.0  0.74254  0.70964  0.99389  1.0000
  S   S38       1.0  0.96877  0.52158  0.84169  1.0000
  H   H294      1.0  0.85405  0.97179  0.98448  1.0000
  H   H295      1.0  0.65670  0.76002  0.87921  1.0000
  H   H296      1.0  0.81398  0.96953  0.85149  1.0000
  C   C165      1.0  0.86039  0.76913  0.95582  1.0000
  C   C166      1.0  0.94247  0.86948  0.83300  1.0000
  H   H297      1.0  0.74893  0.96234  0.95648  1.0000
  H   H298      1.0  0.86529  0.86364  0.86467  1.0000
  H   H299      1.0  0.72735  0.92099  0.84673  1.0000
  H   H300      1.0  0.73643  0.73625  0.84741  1.0000
  H   H301      1.0  0.81289  0.65540  0.81736  1.0000
  H   H302      1.0  0.95331  0.88477  0.87180  1.0000
  S   S39       1.0  0.79607  0.88202  0.99775  1.0000
  H   H303      1.0  0.77061  0.84247  0.82458  1.0000
  N   N10       1.0  0.81681  0.79758  0.78210  1.0000
  H   H304      1.0  0.88300  0.84491  0.95770  1.0000
  S   S40       1.0  0.97917  0.72228  0.93326  1.0000
  C   C167      1.0  0.88772  0.84277  0.83784  1.0000
  H   H305      1.0  0.96844  0.84464  0.82054  1.0000
  H   H306      1.0  0.71010  0.76393  0.79565  1.0000
  C   C168      1.0  0.80480  0.82369  0.98612  1.0000
  H   H307      1.0  0.73786  0.88830  0.90341  1.0000
  H   H308      1.0  0.99142  0.85373  0.03789  1.0000
  C   C169      1.0  0.75519  0.96484  0.91331  1.0000
  H   H309      1.0  0.85459  0.87085  0.77378  1.0000
  C   C170      1.0  0.81249  0.96970  0.89490  1.0000
  H   H310      1.0  0.89688  0.76334  0.93958  1.0000
  C   C171      1.0  0.79308  0.80295  0.73128  1.0000
  C   C172      1.0  0.69103  0.78790  0.87295  1.0000
  C   C173      1.0  0.77958  0.80618  0.82715  1.0000
  C   C174      1.0  0.85224  0.81545  0.96555  1.0000
  H   H311      1.0  0.70801  0.79620  0.91118  1.0000
  C   C175      1.0  0.72426  0.92008  0.89024  1.0000
  C   C176      1.0  0.99765  0.77568  0.74378  1.0000
  H   H312      1.0  0.85803  0.66133  0.76052  1.0000
  C   C177      1.0  0.99902  0.81718  0.03204  1.0000
  C   C178      1.0  0.83300  0.75003  0.78689  1.0000
  C   C179      1.0  0.55668  0.97176  0.02265  1.0000
  H   H313      1.0  0.89717  0.95428  0.83667  1.0000
  H   H314      1.0  0.58130  0.94707  0.00557  1.0000
  H   H315      1.0  0.77694  0.83624  0.73239  1.0000
  H   H316      1.0  0.87277  0.75114  0.77011  1.0000
  H   H317      1.0  0.51945  0.95051  0.03635  1.0000
  H   H318      1.0  0.76019  0.77427  0.72556  1.0000
  H   H319      1.0  0.95700  0.70460  0.73383  1.0000
  H   H320      1.0  0.00766  0.64360  0.73079  1.0000
  C   C180      1.0  0.00903  0.82113  0.72271  1.0000
