data_image0
_chemical_formula_structural       HSCFe2S3C5H2FeH2CHSH3SHCHFeSH3FeSH3C2H2C2HCH9FeH2CH4C2H5C2HCSHC2HSH2CNH4CHCH3CSC2HSH2CH3CHSC2FeCH2CH4CSHCHFeC2HFeCNH5FeH2CHCNHCHCH5C2H3C2SH4CHC2HCH2CH2C2H2SCHNH3CHC2H5CHCNHC2SH2C3H2CH2CSCHCHC2H6CHCH5NH2C7H3CH3CH7CH3CH2CHCH3CHCH2CHCH3C2HCHCFeH2CH2SHCH7CH4CHC2H6CHC3H2C3H4C2H2CHNCH2CHC2HCHCH4SCFeH2FeHSH2CH3CHC2H3CH7CNH2CH2CHCHCH2C6NH3SH4SHC2SC3H2CHCH2CH2FeCHC3FeS2HNS2FeC3H2CHCH3SHC2H6S2CH5C2H3CNH2C2SH3C2HC2H4CH4C2HCSCHCH2CH2C2H6C2H5C3H2CH2SH3CHCH2SCHCH2C2H2CHFeC2SCH2CH5CHCFeCHCH7C2HS2HFeHCH3CHC2H3SCH4CH6NSCSCHC2H3FeCHCH2SC2H6C2SC2HFeH2CH3CH2SFeH3CH4CFe2S4H2C
_chemical_formula_sum              "H384 S48 C216 Fe24 N12"
_cell_length_a       20.7784
_cell_length_b       19.2707
_cell_length_c       25.2526
_cell_angle_alpha    81.6028
_cell_angle_beta     115.436
_cell_angle_gamma    119.207

_space_group_name_H-M_alt    "P 1"
_space_group_IT_number       1

loop_
  _space_group_symop_operation_xyz
  'x, y, z'

loop_
  _atom_site_type_symbol
  _atom_site_label
  _atom_site_symmetry_multiplicity
  _atom_site_fract_x
  _atom_site_fract_y
  _atom_site_fract_z
  _atom_site_occupancy
  H   H1        1.0  0.74420  0.31293  0.84184  1.0000
  S   S1        1.0  0.76899  0.42552  0.95854  1.0000
  C   C1        1.0  0.69040  0.33454  0.75055  1.0000
  Fe  Fe1       1.0  0.95335  0.35327  0.80227  1.0000
  Fe  Fe2       1.0  0.99949  0.22113  0.81133  1.0000
  S   S2        1.0  0.97423  0.47517  0.81871  1.0000
  S   S3        1.0  0.02188  0.33229  0.76387  1.0000
  S   S4        1.0  0.62607  0.46354  0.80755  1.0000
  C   C2        1.0  0.83004  0.49463  0.87641  1.0000
  C   C3        1.0  0.92236  0.46654  0.86047  1.0000
  C   C4        1.0  0.69081  0.27993  0.80083  1.0000
  C   C5        1.0  0.88298  0.41151  0.94087  1.0000
  C   C6        1.0  0.83259  0.44661  0.92359  1.0000
  H   H2        1.0  0.69412  0.22765  0.79116  1.0000
  H   H3        1.0  0.75030  0.36064  0.74910  1.0000
  Fe  Fe3       1.0  0.59305  0.54834  0.82653  1.0000
  H   H4        1.0  0.88627  0.37542  0.97789  1.0000
  H   H5        1.0  0.77078  0.62276  0.79567  1.0000
  C   C7        1.0  0.87478  0.50448  0.84476  1.0000
  H   H6        1.0  0.65525  0.19194  0.96456  1.0000
  S   S5        1.0  0.94359  0.24956  0.85821  1.0000
  H   H7        1.0  0.76174  0.19842  0.90287  1.0000
  H   H8        1.0  0.63541  0.25935  0.80811  1.0000
  H   H9        1.0  0.79323  0.52367  0.86416  1.0000
  S   S6        1.0  0.63856  0.53513  0.92336  1.0000
  H   H10       1.0  0.68258  0.38241  0.76170  1.0000
  C   C8        1.0  0.92680  0.42036  0.90866  1.0000
  H   H11       1.0  0.87004  0.53873  0.80684  1.0000
  Fe  Fe4       1.0  0.66046  0.44148  0.90274  1.0000
  S   S7        1.0  0.53744  0.34044  0.88939  1.0000
  H   H12       1.0  0.99328  0.64444  0.80388  1.0000
  H   H13       1.0  0.96419  0.39164  0.92112  1.0000
  H   H14       1.0  0.87240  0.65069  0.75539  1.0000
  Fe  Fe5       1.0  0.82718  0.17866  0.78123  1.0000
  S   S8        1.0  0.61000  0.66332  0.78574  1.0000
  H   H15       1.0  0.53644  0.61442  0.86821  1.0000
  H   H16       1.0  0.90712  0.26635  0.96520  1.0000
  H   H17       1.0  0.78150  0.23084  0.97395  1.0000
  C   C9        1.0  0.78210  0.18735  0.95018  1.0000
  C   C10       1.0  0.86965  0.20434  0.97277  1.0000
  H   H18       1.0  0.02433  0.17922  0.96547  1.0000
  H   H19       1.0  0.54821  0.54339  0.07339  1.0000
  C   C11       1.0  0.56405  0.28733  0.10294  1.0000
  C   C12       1.0  0.56929  0.60432  0.05785  1.0000
  H   H20       1.0  0.56805  0.40417  0.09093  1.0000
  C   C13       1.0  0.57921  0.36530  0.07145  1.0000
  H   H21       1.0  0.59658  0.19994  0.20396  1.0000
  H   H22       1.0  0.58752  0.25601  0.08869  1.0000
  H   H23       1.0  0.60447  0.30677  0.15027  1.0000
  H   H24       1.0  0.72114  0.20103  0.12808  1.0000
  H   H25       1.0  0.54061  0.35352  0.02361  1.0000
  H   H26       1.0  0.53875  0.65053  0.11040  1.0000
  H   H27       1.0  0.56023  0.60066  0.01145  1.0000
  H   H28       1.0  0.86434  0.65331  0.03803  1.0000
  H   H29       1.0  0.89429  0.19730  0.02068  1.0000
  Fe  Fe6       1.0  0.01041  0.25340  0.20701  1.0000
  H   H30       1.0  0.75890  0.17540  0.05641  1.0000
  H   H31       1.0  0.74490  0.64609  0.04133  1.0000
  C   C14       1.0  0.67985  0.19127  0.08065  1.0000
  H   H32       1.0  0.67559  0.46842  0.05651  1.0000
  H   H33       1.0  0.68115  0.37792  0.05768  1.0000
  H   H34       1.0  0.83404  0.34364  0.05328  1.0000
  H   H35       1.0  0.85230  0.47509  0.07254  1.0000
  C   C15       1.0  0.90759  0.49161  0.11363  1.0000
  C   C16       1.0  0.88587  0.35383  0.09621  1.0000
  H   H36       1.0  0.91532  0.32023  0.09365  1.0000
  H   H37       1.0  0.70963  0.42759  0.12587  1.0000
  H   H38       1.0  0.88430  0.46907  0.14828  1.0000
  H   H39       1.0  0.92657  0.58511  0.02839  1.0000
  H   H40       1.0  0.69204  0.25045  0.06280  1.0000
  C   C17       1.0  0.66701  0.41244  0.07862  1.0000
  C   C18       1.0  0.94713  0.44234  0.11102  1.0000
  H   H41       1.0  0.99712  0.50651  0.23274  1.0000
  C   C19       1.0  0.91346  0.61777  0.12796  1.0000
  S   S9        1.0  0.82899  0.34379  0.22298  1.0000
  H   H42       1.0  0.86245  0.33036  0.13039  1.0000
  C   C20       1.0  0.84226  0.61589  0.07048  1.0000
  C   C21       1.0  0.79508  0.64754  0.08303  1.0000
  H   H43       1.0  0.76845  0.61001  0.11352  1.0000
  S   S10       1.0  0.87740  0.19185  0.18125  1.0000
  H   H44       1.0  0.79940  0.55458  0.04925  1.0000
  H   H45       1.0  0.97074  0.46083  0.07667  1.0000
  C   C22       1.0  0.98191  0.60951  0.07053  1.0000
  N   N1        1.0  0.96011  0.58096  0.12234  1.0000
  H   H46       1.0  0.88684  0.58673  0.16000  1.0000
  H   H47       1.0  0.99747  0.44875  0.15406  1.0000
  H   H48       1.0  0.63510  0.64036  0.08527  1.0000
  H   H49       1.0  0.53125  0.22615  0.21508  1.0000
  C   C23       1.0  0.53297  0.17915  0.19626  1.0000
  H   H50       1.0  0.02062  0.58615  0.06901  1.0000
  C   C24       1.0  0.77079  0.31347  0.26363  1.0000
  H   H51       1.0  0.92949  0.47993  0.46371  1.0000
  H   H52       1.0  0.91151  0.59006  0.41389  1.0000
  H   H53       1.0  0.70180  0.59319  0.44629  1.0000
  C   C25       1.0  0.68887  0.27248  0.33625  1.0000
  S   S11       1.0  0.61629  0.43289  0.38996  1.0000
  C   C26       1.0  0.69520  0.33831  0.30279  1.0000
  C   C27       1.0  0.55085  0.65982  0.36163  1.0000
  H   H54       1.0  0.53760  0.64294  0.39997  1.0000
  S   S12       1.0  0.63537  0.24386  0.37999  1.0000
  H   H55       1.0  0.81107  0.56216  0.45245  1.0000
  H   H56       1.0  0.97962  0.53627  0.38486  1.0000
  C   C28       1.0  0.92058  0.50832  0.34612  1.0000
  H   H57       1.0  0.57573  0.56379  0.36328  1.0000
  H   H58       1.0  0.80809  0.53488  0.36514  1.0000
  H   H59       1.0  0.71564  0.17474  0.35730  1.0000
  C   C29       1.0  0.88782  0.56766  0.32342  1.0000
  H   H60       1.0  0.74061  0.40909  0.24014  1.0000
  S   S13       1.0  0.59458  0.56518  0.25693  1.0000
  C   C30       1.0  0.76638  0.62603  0.47728  1.0000
  C   C31       1.0  0.58490  0.63246  0.28909  1.0000
  Fe  Fe7       1.0  0.56257  0.30731  0.35595  1.0000
  C   C32       1.0  0.82144  0.62439  0.45275  1.0000
  H   H61       1.0  0.78306  0.20814  0.29053  1.0000
  H   H62       1.0  0.83247  0.54076  0.28186  1.0000
  C   C33       1.0  0.57228  0.61459  0.34063  1.0000
  H   H63       1.0  0.76047  0.61988  0.27597  1.0000
  H   H64       1.0  0.87766  0.45421  0.35903  1.0000
  H   H65       1.0  0.73914  0.60979  0.36172  1.0000
  H   H66       1.0  0.92958  0.48985  0.31132  1.0000
  C   C34       1.0  0.73548  0.35826  0.26593  1.0000
  S   S14       1.0  0.91960  0.20283  0.32069  1.0000
  H   H67       1.0  0.93347  0.62002  0.31201  1.0000
  C   C35       1.0  0.72197  0.22648  0.33247  1.0000
  H   H68       1.0  0.66996  0.37428  0.30579  1.0000
  Fe  Fe8       1.0  0.54494  0.45023  0.29782  1.0000
  C   C36       1.0  0.86636  0.58826  0.36890  1.0000
  C   C37       1.0  0.76156  0.24620  0.29541  1.0000
  H   H69       1.0  0.98732  0.59125  0.24220  1.0000
  Fe  Fe9       1.0  0.90293  0.27984  0.24570  1.0000
  C   C38       1.0  0.80277  0.65344  0.38972  1.0000
  N   N2        1.0  0.85843  0.66339  0.36222  1.0000
  H   H70       1.0  0.88485  0.66232  0.48378  1.0000
  H   H71       1.0  0.52912  0.63418  0.59854  1.0000
  H   H72       1.0  0.80023  0.39895  0.58237  1.0000
  H   H73       1.0  0.91745  0.62015  0.59724  1.0000
  H   H74       1.0  0.77382  0.59700  0.51925  1.0000
  Fe  Fe10      1.0  0.90074  0.25847  0.69286  1.0000
  H   H75       1.0  0.99002  0.28178  0.54199  1.0000
  H   H76       1.0  0.56758  0.23116  0.57882  1.0000
  C   C39       1.0  0.59000  0.39477  0.63908  1.0000
  H   H77       1.0  0.62559  0.23452  0.68623  1.0000
  C   C40       1.0  0.66994  0.20652  0.52660  1.0000
  N   N3        1.0  0.61365  0.33247  0.63728  1.0000
  H   H78       1.0  0.97704  0.42360  0.67082  1.0000
  C   C41       1.0  0.98848  0.53115  0.55268  1.0000
  H   H79       1.0  0.69492  0.50709  0.63697  1.0000
  C   C42       1.0  0.77494  0.44091  0.57141  1.0000
  H   H80       1.0  0.53604  0.30328  0.54393  1.0000
  H   H81       1.0  0.71147  0.32021  0.63755  1.0000
  H   H82       1.0  0.70115  0.48346  0.70950  1.0000
  H   H83       1.0  0.81562  0.49278  0.60467  1.0000
  H   H84       1.0  0.67399  0.59662  0.68104  1.0000
  C   C43       1.0  0.94048  0.46807  0.50893  1.0000
  C   C44       1.0  0.65895  0.48116  0.66352  1.0000
  H   H85       1.0  0.54918  0.40010  0.59455  1.0000
  H   H86       1.0  0.58520  0.51294  0.68571  1.0000
  H   H87       1.0  0.55256  0.37527  0.66462  1.0000
  C   C45       1.0  0.69011  0.39859  0.57007  1.0000
  C   C46       1.0  0.54790  0.27254  0.58520  1.0000
  S   S15       1.0  0.88417  0.27273  0.59935  1.0000
  H   H88       1.0  0.98384  0.64140  0.70441  1.0000
  H   H89       1.0  0.74228  0.41495  0.66546  1.0000
  H   H90       1.0  0.88352  0.62946  0.67847  1.0000
  H   H91       1.0  0.77223  0.46179  0.52751  1.0000
  C   C47       1.0  0.62012  0.28744  0.69193  1.0000
  H   H92       1.0  0.56394  0.26356  0.69910  1.0000
  C   C48       1.0  0.62406  0.53605  0.66115  1.0000
  C   C49       1.0  0.90774  0.38905  0.52355  1.0000
  H   H93       1.0  0.66436  0.44022  0.55693  1.0000
  C   C50       1.0  0.69212  0.36663  0.63063  1.0000
  H   H94       1.0  0.65247  0.34880  0.53512  1.0000
  H   H95       1.0  0.58720  0.54075  0.61472  1.0000
  C   C51       1.0  0.92226  0.37254  0.58208  1.0000
  H   H96       1.0  0.72235  0.25408  0.51835  1.0000
  H   H97       1.0  0.67336  0.22470  0.56769  1.0000
  C   C52       1.0  0.96783  0.43565  0.62581  1.0000
  C   C53       1.0  0.00140  0.51500  0.61116  1.0000
  H   H98       1.0  0.87132  0.34063  0.48936  1.0000
  H   H99       1.0  0.61284  0.20030  0.48975  1.0000
  S   S16       1.0  0.83256  0.28366  0.72876  1.0000
  C   C54       1.0  0.94525  0.67024  0.68097  1.0000
  H   H100      1.0  0.72842  0.06287  0.92870  1.0000
  N   N4        1.0  0.64167  0.07822  0.94468  1.0000
  H   H101      1.0  0.86804  0.74047  0.73872  1.0000
  H   H102      1.0  0.85050  0.97894  0.81302  1.0000
  H   H103      1.0  0.83853  0.91109  0.86955  1.0000
  C   C55       1.0  0.63917  0.13151  0.98126  1.0000
  H   H104      1.0  0.80518  0.67833  0.86239  1.0000
  C   C56       1.0  0.93617  0.03282  0.90168  1.0000
  C   C57       1.0  0.90491  0.71437  0.77167  1.0000
  H   H105      1.0  0.57634  0.10778  0.97710  1.0000
  H   H106      1.0  0.61145  0.05984  0.85245  1.0000
  H   H107      1.0  0.80492  0.98512  0.85754  1.0000
  H   H108      1.0  0.78657  0.72386  0.79365  1.0000
  H   H109      1.0  0.87363  0.16373  0.94884  1.0000
  C   C58       1.0  0.60060  0.08860  0.88060  1.0000
  H   H110      1.0  0.54389  0.80078  0.91584  1.0000
  C   C59       1.0  0.99958  0.89561  0.76409  1.0000
  N   N5        1.0  0.98932  0.75449  0.77404  1.0000
  H   H111      1.0  0.93702  0.87151  0.76018  1.0000
  C   C60       1.0  0.93941  0.03107  0.96458  1.0000
  C   C61       1.0  0.80980  0.68290  0.81965  1.0000
  S   S17       1.0  0.88229  0.14520  0.73717  1.0000
  H   H112      1.0  0.62806  0.15285  0.87269  1.0000
  H   H113      1.0  0.89842  0.05400  0.96226  1.0000
  C   C62       1.0  0.53957  0.68258  0.79274  1.0000
  C   C63       1.0  0.72761  0.09974  0.95823  1.0000
  C   C64       1.0  0.89802  0.71444  0.83026  1.0000
  H   H114      1.0  0.93298  0.77499  0.85285  1.0000
  H   H115      1.0  0.57348  0.94556  0.77944  1.0000
  C   C65       1.0  0.59087  0.92860  0.92246  1.0000
  H   H116      1.0  0.65127  0.93617  0.93175  1.0000
  H   H117      1.0  0.91036  0.96705  0.97304  1.0000
  C   C66       1.0  0.54307  0.84523  0.93857  1.0000
  S   S18       1.0  0.72347  0.08579  0.80036  1.0000
  C   C67       1.0  0.59900  0.99321  0.95864  1.0000
  H   H118      1.0  0.98113  0.01864  0.90040  1.0000
  C   C68       1.0  0.85234  0.97318  0.85800  1.0000
  H   H119      1.0  0.94839  0.09264  0.88534  1.0000
  C   C69       1.0  0.56716  0.97619  0.73952  1.0000
  C   C70       1.0  0.63303  0.04592  0.73674  1.0000
  H   H120      1.0  0.53733  0.97744  0.95360  1.0000
  H   H121      1.0  0.97864  0.70437  0.97480  1.0000
  H   H122      1.0  0.02240  0.01743  0.77003  1.0000
  H   H123      1.0  0.91942  0.67445  0.85980  1.0000
  H   H124      1.0  0.55906  0.93066  0.87450  1.0000
  H   H125      1.0  0.65219  0.85640  0.17790  1.0000
  C   C71       1.0  0.96060  0.01037  0.09051  1.0000
  H   H126      1.0  0.90172  0.05890  0.11628  1.0000
  C   C72       1.0  0.76387  0.75173  0.21727  1.0000
  H   H127      1.0  0.00197  0.73322  0.07641  1.0000
  H   H128      1.0  0.59419  0.71538  0.22207  1.0000
  H   H129      1.0  0.99559  0.97746  0.11164  1.0000
  H   H130      1.0  0.54711  0.70381  0.04697  1.0000
  H   H131      1.0  0.70437  0.69746  0.19699  1.0000
  N   N6        1.0  0.02243  0.07640  0.01404  1.0000
  H   H132      1.0  0.80381  0.75799  0.19655  1.0000
  H   H133      1.0  0.75764  0.08549  0.00367  1.0000
  C   C73       1.0  0.63257  0.04675  0.17719  1.0000
  C   C74       1.0  0.64683  0.90946  0.17783  1.0000
  C   C75       1.0  0.69396  0.14284  0.04814  1.0000
  C   C76       1.0  0.71603  0.98151  0.20577  1.0000
  C   C77       1.0  0.01038  0.08721  0.06661  1.0000
  C   C78       1.0  0.70844  0.04975  0.20571  1.0000
  C   C79       1.0  0.56352  0.97512  0.14907  1.0000
  H   H134      1.0  0.91041  0.97598  0.15598  1.0000
  H   H135      1.0  0.61653  0.15816  0.07657  1.0000
  H   H136      1.0  0.76083  0.10496  0.22838  1.0000
  C   C80       1.0  0.57052  0.90629  0.14943  1.0000
  H   H137      1.0  0.90165  0.97023  0.05549  1.0000
  H   H138      1.0  0.99820  0.07319  0.17257  1.0000
  H   H139      1.0  0.95476  0.68093  0.14672  1.0000
  C   C81       1.0  0.94175  0.03093  0.13663  1.0000
  H   H140      1.0  0.83534  0.71013  0.10268  1.0000
  H   H141      1.0  0.68151  0.08496  0.06799  1.0000
  H   H142      1.0  0.62743  0.09969  0.17820  1.0000
  H   H143      1.0  0.75358  0.80449  0.20850  1.0000
  H   H144      1.0  0.98015  0.12512  0.05551  1.0000
  H   H145      1.0  0.63149  0.98613  0.00560  1.0000
  H   H146      1.0  0.57028  0.84046  0.98672  1.0000
  C   C82       1.0  0.00593  0.75669  0.37272  1.0000
  H   H147      1.0  0.74259  0.07109  0.42360  1.0000
  H   H148      1.0  0.57861  0.97224  0.27780  1.0000
  H   H149      1.0  0.70723  0.96713  0.43436  1.0000
  C   C83       1.0  0.69231  0.01663  0.42985  1.0000
  H   H150      1.0  0.55663  0.96681  0.46010  1.0000
  H   H151      1.0  0.68484  0.03862  0.31651  1.0000
  C   C84       1.0  0.80307  0.74715  0.28368  1.0000
  H   H152      1.0  0.55586  0.79565  0.25917  1.0000
  C   C85       1.0  0.56008  0.74493  0.28182  1.0000
  H   H153      1.0  0.85595  0.68063  0.27428  1.0000
  H   H154      1.0  0.86529  0.08148  0.39889  1.0000
  H   H155      1.0  0.92464  0.96381  0.39612  1.0000
  C   C86       1.0  0.93943  0.73488  0.39425  1.0000
  H   H156      1.0  0.80422  0.98753  0.35517  1.0000
  C   C87       1.0  0.68079  0.10492  0.48181  1.0000
  H   H157      1.0  0.98416  0.76118  0.32454  1.0000
  H   H158      1.0  0.59789  0.90276  0.46673  1.0000
  C   C88       1.0  0.93321  0.02539  0.39544  1.0000
  H   H159      1.0  0.56282  0.94230  0.37170  1.0000
  C   C89       1.0  0.85804  0.02094  0.39616  1.0000
  H   H160      1.0  0.80261  0.71057  0.39201  1.0000
  H   H161      1.0  0.60125  0.04675  0.36078  1.0000
  H   H162      1.0  0.62738  0.10102  0.44191  1.0000
  C   C90       1.0  0.54034  0.72230  0.33043  1.0000
  C   C91       1.0  0.63219  0.98453  0.32000  1.0000
  H   H163      1.0  0.76086  0.74270  0.30141  1.0000
  C   C92       1.0  0.01252  0.08184  0.44690  1.0000
  H   H164      1.0  0.64382  0.93277  0.32628  1.0000
  C   C93       1.0  0.61651  0.99730  0.37085  1.0000
  Fe  Fe11      1.0  0.90139  0.11864  0.25677  1.0000
  H   H165      1.0  0.84674  0.98888  0.43402  1.0000
  H   H166      1.0  0.54486  0.12275  0.27846  1.0000
  C   C94       1.0  0.58296  0.70024  0.26131  1.0000
  H   H167      1.0  0.86031  0.80389  0.30207  1.0000
  H   H168      1.0  0.93698  0.04822  0.35337  1.0000
  S   S19       1.0  0.81247  0.98776  0.23957  1.0000
  H   H169      1.0  0.93188  0.78825  0.39390  1.0000
  C   C95       1.0  0.81939  0.67455  0.29781  1.0000
  H   H170      1.0  0.96602  0.72542  0.44156  1.0000
  H   H171      1.0  0.73382  0.15656  0.47662  1.0000
  H   H172      1.0  0.64433  0.90082  0.56911  1.0000
  H   H173      1.0  0.96125  0.85820  0.57431  1.0000
  H   H174      1.0  0.67617  0.13697  0.68149  1.0000
  H   H175      1.0  0.52836  0.86865  0.59080  1.0000
  H   H176      1.0  0.53097  0.72968  0.59280  1.0000
  C   C96       1.0  0.54936  0.05351  0.63531  1.0000
  H   H177      1.0  0.98824  0.83308  0.52349  1.0000
  H   H178      1.0  0.61293  0.08192  0.53476  1.0000
  H   H179      1.0  0.75770  0.97390  0.54189  1.0000
  H   H180      1.0  0.94306  0.78030  0.68277  1.0000
  C   C97       1.0  0.54048  0.68859  0.57401  1.0000
  H   H181      1.0  0.99823  0.72078  0.61690  1.0000
  C   C98       1.0  0.98146  0.75328  0.71179  1.0000
  C   C99       1.0  0.93870  0.67878  0.61792  1.0000
  H   H182      1.0  0.97276  0.14390  0.58944  1.0000
  H   H183      1.0  0.64212  0.98844  0.58072  1.0000
  H   H184      1.0  0.72185  0.13295  0.57629  1.0000
  H   H185      1.0  0.54194  0.08387  0.59529  1.0000
  H   H186      1.0  0.60466  0.71872  0.58010  1.0000
  H   H187      1.0  0.78167  0.68847  0.48537  1.0000
  C   C100      1.0  0.76090  0.03379  0.53698  1.0000
  H   H188      1.0  0.76407  0.04980  0.57874  1.0000
  C   C101      1.0  0.67141  0.12724  0.53356  1.0000
  C   C102      1.0  0.62498  0.08367  0.68412  1.0000
  C   C103      1.0  0.84366  0.09273  0.53451  1.0000
  H   H189      1.0  0.91273  0.12848  0.62859  1.0000
  H   H190      1.0  0.52839  0.75350  0.71831  1.0000
  C   C104      1.0  0.01164  0.95658  0.52546  1.0000
  C   C105      1.0  0.61143  0.93602  0.54947  1.0000
  C   C106      1.0  0.91476  0.10263  0.59315  1.0000
  H   H191      1.0  0.91338  0.04432  0.60539  1.0000
  H   H192      1.0  0.99879  0.90274  0.71944  1.0000
  H   H193      1.0  0.84859  0.15228  0.52324  1.0000
  H   H194      1.0  0.85108  0.07003  0.50078  1.0000
  C   C107      1.0  0.00649  0.88042  0.55528  1.0000
  C   C108      1.0  0.61058  0.95810  0.48732  1.0000
  H   H195      1.0  0.89537  0.70149  0.59158  1.0000
  H   H196      1.0  0.94876  0.94282  0.49497  1.0000
  C   C109      1.0  0.52568  0.88574  0.54621  1.0000
  H   H197      1.0  0.99815  0.08132  0.48445  1.0000
  N   N7        1.0  0.68610  0.02889  0.48493  1.0000
  C   C110      1.0  0.34512  0.36400  0.91849  1.0000
  H   H198      1.0  0.43272  0.63608  0.87571  1.0000
  H   H199      1.0  0.26297  0.62277  0.91507  1.0000
  C   C111      1.0  0.16810  0.50273  0.90348  1.0000
  H   H200      1.0  0.13306  0.52072  0.91615  1.0000
  C   C112      1.0  0.17778  0.55283  0.75690  1.0000
  C   C113      1.0  0.51207  0.64927  0.83692  1.0000
  H   H201      1.0  0.14925  0.66681  0.88827  1.0000
  C   C114      1.0  0.20306  0.31907  0.89082  1.0000
  H   H202      1.0  0.13581  0.31752  0.98022  1.0000
  C   C115      1.0  0.32535  0.29069  0.89598  1.0000
  H   H203      1.0  0.15833  0.44276  0.91848  1.0000
  H   H204      1.0  0.24727  0.45711  0.77004  1.0000
  H   H205      1.0  0.29108  0.54915  0.91364  1.0000
  H   H206      1.0  0.17897  0.61114  0.74911  1.0000
  S   S20       1.0  0.46528  0.45520  0.80632  1.0000
  C   C116      1.0  0.18376  0.24422  0.87178  1.0000
  Fe  Fe12      1.0  0.50161  0.36886  0.79503  1.0000
  H   H207      1.0  0.14375  0.49857  0.85499  1.0000
  H   H208      1.0  0.22952  0.17201  0.85877  1.0000
  Fe  Fe13      1.0  0.51238  0.43638  0.90195  1.0000
  H   H209      1.0  0.35097  0.22247  0.78980  1.0000
  S   S21       1.0  0.44597  0.43768  0.95114  1.0000
  H   H210      1.0  0.06390  0.61764  0.90819  1.0000
  H   H211      1.0  0.29972  0.43430  0.93408  1.0000
  C   C117      1.0  0.25795  0.56422  0.93060  1.0000
  H   H212      1.0  0.15567  0.33014  0.88828  1.0000
  H   H213      1.0  0.42099  0.59239  0.97962  1.0000
  H   H214      1.0  0.22211  0.55644  0.80251  1.0000
  C   C118      1.0  0.24471  0.22985  0.87416  1.0000
  H   H215      1.0  0.37238  0.27998  0.89714  1.0000
  C   C119      1.0  0.28413  0.37799  0.91622  1.0000
  C   C120      1.0  0.45341  0.66169  0.84132  1.0000
  H   H216      1.0  0.13990  0.29067  0.75233  1.0000
  H   H217      1.0  0.26872  0.35836  0.74627  1.0000
  H   H218      1.0  0.19692  0.20169  0.75200  1.0000
  C   C121      1.0  0.32962  0.17554  0.75809  1.0000
  H   H219      1.0  0.11567  0.50757  0.75151  1.0000
  H   H220      1.0  0.34704  0.63923  0.09937  1.0000
  H   H221      1.0  0.13133  0.41362  0.20275  1.0000
  H   H222      1.0  0.45583  0.17784  0.01477  1.0000
  H   H223      1.0  0.21763  0.35243  0.05214  1.0000
  H   H224      1.0  0.41892  0.60494  0.21304  1.0000
  H   H225      1.0  0.18672  0.55431  0.17835  1.0000
  C   C122      1.0  0.44648  0.27043  0.11788  1.0000
  N   N8        1.0  0.47768  0.23093  0.09459  1.0000
  H   H226      1.0  0.41183  0.53059  0.03764  1.0000
  H   H227      1.0  0.49802  0.31555  0.15451  1.0000
  C   C123      1.0  0.15580  0.50685  0.14450  1.0000
  H   H228      1.0  0.07687  0.58520  0.17247  1.0000
  H   H229      1.0  0.44866  0.41085  0.13698  1.0000
  C   C124      1.0  0.03708  0.60437  0.17757  1.0000
  H   H230      1.0  0.35158  0.32753  0.12987  1.0000
  C   C125      1.0  0.39267  0.62707  0.09663  1.0000
  H   H231      1.0  0.21756  0.29296  0.00309  1.0000
  C   C126      1.0  0.37343  0.54938  0.18402  1.0000
  H   H232      1.0  0.25127  0.57464  0.01170  1.0000
  H   H233      1.0  0.33761  0.49573  0.10159  1.0000
  C   C127      1.0  0.42657  0.20074  0.03056  1.0000
  C   C128      1.0  0.38781  0.55104  0.12936  1.0000
  C   C129      1.0  0.43067  0.59362  0.02647  1.0000
  C   C130      1.0  0.40082  0.31300  0.07379  1.0000
  C   C131      1.0  0.29094  0.56471  0.99848  1.0000
  C   C132      1.0  0.12436  0.42729  0.15834  1.0000
  N   N9        1.0  0.37895  0.62285  0.03319  1.0000
  H   H234      1.0  0.44513  0.54874  0.14315  1.0000
  H   H235      1.0  0.04781  0.33585  0.02381  1.0000
  H   H236      1.0  0.35835  0.39571  0.07280  1.0000
  S   S22       1.0  0.18436  0.62264  0.06810  1.0000
  H   H237      1.0  0.10379  0.24216  0.06332  1.0000
  H   H238      1.0  0.31238  0.54246  0.17121  1.0000
  H   H239      1.0  0.17812  0.21216  0.07865  1.0000
  H   H240      1.0  0.37709  0.49805  0.20890  1.0000
  S   S23       1.0  0.26562  0.20854  0.22695  1.0000
  H   H241      1.0  0.43412  0.35200  0.04789  1.0000
  C   C133      1.0  0.08499  0.36557  0.11483  1.0000
  C   C134      1.0  0.07796  0.38330  0.05757  1.0000
  S   S24       1.0  0.04199  0.26618  0.13099  1.0000
  C   C135      1.0  0.10830  0.46263  0.04352  1.0000
  C   C136      1.0  0.14714  0.52430  0.08693  1.0000
  C   C137      1.0  0.38923  0.36475  0.10562  1.0000
  H   H242      1.0  0.33998  0.26896  0.04269  1.0000
  H   H243      1.0  0.40454  0.22669  0.13745  1.0000
  C   C138      1.0  0.13315  0.22667  0.04300  1.0000
  H   H244      1.0  0.27876  0.50259  0.00883  1.0000
  C   C139      1.0  0.17872  0.30195  0.01767  1.0000
  H   H245      1.0  0.42447  0.25008  0.00252  1.0000
  H   H246      1.0  0.10124  0.47618  0.99896  1.0000
  C   C140      1.0  0.52348  0.64357  0.06304  1.0000
  H   H247      1.0  0.07298  0.67050  0.18552  1.0000
  H   H248      1.0  0.35044  0.32278  0.38574  1.0000
  Fe  Fe14      1.0  0.39478  0.28954  0.28508  1.0000
  C   C141      1.0  0.33696  0.34046  0.41670  1.0000
  H   H249      1.0  0.36299  0.52076  0.42343  1.0000
  C   C142      1.0  0.24834  0.55018  0.43172  1.0000
  C   C143      1.0  0.39974  0.38969  0.46761  1.0000
  C   C144      1.0  0.13828  0.51338  0.46641  1.0000
  Fe  Fe15      1.0  0.50232  0.38888  0.40194  1.0000
  S   S25       1.0  0.43408  0.41402  0.31210  1.0000
  S   S26       1.0  0.50098  0.42935  0.47945  1.0000
  H   H250      1.0  0.14544  0.58328  0.28484  1.0000
  N   N10       1.0  0.33228  0.60797  0.43541  1.0000
  S   S27       1.0  0.49938  0.32727  0.26242  1.0000
  S   S28       1.0  0.45472  0.26103  0.37653  1.0000
  Fe  Fe16      1.0  0.04998  0.26485  0.33637  1.0000
  C   C145      1.0  0.35206  0.57025  0.40013  1.0000
  C   C146      1.0  0.10671  0.60505  0.28832  1.0000
  C   C147      1.0  0.02561  0.57260  0.23468  1.0000
  H   H251      1.0  0.37633  0.54557  0.30685  1.0000
  H   H252      1.0  0.11027  0.45016  0.45048  1.0000
  C   C148      1.0  0.28792  0.53575  0.33635  1.0000
  H   H253      1.0  0.22912  0.48763  0.33555  1.0000
  C   C149      1.0  0.31699  0.50019  0.30689  1.0000
  H   H254      1.0  0.09588  0.58397  0.32848  1.0000
  H   H255      1.0  0.17526  0.18696  0.48385  1.0000
  H   H256      1.0  0.23627  0.48756  0.42889  1.0000
  S   S29       1.0  0.13813  0.31097  0.42998  1.0000
  H   H257      1.0  0.20206  0.55527  0.39012  1.0000
  C   C150      1.0  0.25603  0.31552  0.40470  1.0000
  C   C151      1.0  0.23810  0.33878  0.44422  1.0000
  H   H258      1.0  0.27740  0.58254  0.30890  1.0000
  H   H259      1.0  0.40929  0.61439  0.39620  1.0000
  H   H260      1.0  0.10992  0.54418  0.43113  1.0000
  H   H261      1.0  0.27288  0.47866  0.26070  1.0000
  H   H262      1.0  0.20795  0.27909  0.36463  1.0000
  H   H263      1.0  0.32277  0.44881  0.33025  1.0000
  S   S30       1.0  0.03521  0.34839  0.26592  1.0000
  S   S31       1.0  0.03378  0.17385  0.27853  1.0000
  C   C152      1.0  0.22948  0.55506  0.48399  1.0000
  H   H264      1.0  0.28669  0.40435  0.52580  1.0000
  H   H265      1.0  0.49869  0.62768  0.49213  1.0000
  H   H266      1.0  0.25444  0.61689  0.50062  1.0000
  H   H267      1.0  0.26244  0.58128  0.71975  1.0000
  H   H268      1.0  0.38742  0.56420  0.61753  1.0000
  C   C153      1.0  0.39405  0.62267  0.49842  1.0000
  C   C154      1.0  0.33083  0.45258  0.65442  1.0000
  H   H269      1.0  0.28067  0.52981  0.65048  1.0000
  H   H270      1.0  0.33545  0.51114  0.72232  1.0000
  H   H271      1.0  0.22743  0.31905  0.67393  1.0000
  C   C155      1.0  0.38148  0.41088  0.50785  1.0000
  N   N11       1.0  0.21032  0.41883  0.68030  1.0000
  H   H272      1.0  0.38704  0.65641  0.52569  1.0000
  H   H273      1.0  0.28890  0.41884  0.61148  1.0000
  C   C156      1.0  0.13846  0.40307  0.62177  1.0000
  C   C157      1.0  0.28919  0.48133  0.67753  1.0000
  S   S32       1.0  0.43809  0.28622  0.71490  1.0000
  H   H274      1.0  0.08228  0.26865  0.67423  1.0000
  H   H275      1.0  0.44472  0.25699  0.60002  1.0000
  H   H276      1.0  0.16455  0.37939  0.55271  1.0000
  C   C158      1.0  0.30070  0.38558  0.49596  1.0000
  C   C159      1.0  0.13973  0.27646  0.71122  1.0000
  H   H277      1.0  0.08184  0.37797  0.62862  1.0000
  C   C160      1.0  0.23515  0.22864  0.59530  1.0000
  C   C161      1.0  0.19975  0.45144  0.72493  1.0000
  H   H278      1.0  0.22795  0.28015  0.57338  1.0000
  H   H279      1.0  0.14122  0.40936  0.72692  1.0000
  H   H280      1.0  0.43354  0.50065  0.63178  1.0000
  H   H281      1.0  0.35207  0.41316  0.68498  1.0000
  C   C162      1.0  0.39997  0.17227  0.52962  1.0000
  H   H282      1.0  0.12504  0.29246  0.59061  1.0000
  H   H283      1.0  0.25613  0.52493  0.52125  1.0000
  H   H284      1.0  0.15777  0.53343  0.66871  1.0000
  H   H285      1.0  0.14403  0.45987  0.60156  1.0000
  C   C163      1.0  0.21542  0.34404  0.70300  1.0000
  C   C164      1.0  0.12161  0.34726  0.57353  1.0000
  H   H286      1.0  0.24579  0.23287  0.64179  1.0000
  C   C165      1.0  0.20099  0.53315  0.71368  1.0000
  S   S33       1.0  0.03117  0.62927  0.53273  1.0000
  C   C166      1.0  0.13960  0.19645  0.71628  1.0000
  H   H287      1.0  0.12615  0.51541  0.50476  1.0000
  C   C167      1.0  0.40488  0.52291  0.64839  1.0000
  H   H288      1.0  0.42987  0.44858  0.54727  1.0000
  H   H289      1.0  0.38344  0.56446  0.51798  1.0000
  C   C168      1.0  0.36368  0.19106  0.71763  1.0000
  H   H290      1.0  0.45023  0.55624  0.69185  1.0000
  H   H291      1.0  0.28963  0.23183  0.59461  1.0000
  C   C169      1.0  0.46495  0.21998  0.58832  1.0000
  C   C170      1.0  0.03632  0.31935  0.52461  1.0000
  H   H292      1.0  0.38878  0.21291  0.49496  1.0000
  H   H293      1.0  0.03687  0.56347  0.64505  1.0000
  H   H294      1.0  0.02729  0.28322  0.48911  1.0000
  H   H295      1.0  0.46947  0.17603  0.62160  1.0000
  H   H296      1.0  0.02696  0.37096  0.50534  1.0000
  H   H297      1.0  0.13238  0.17594  0.67429  1.0000
  C   C171      1.0  0.48453  0.66677  0.50849  1.0000
  C   C172      1.0  0.04951  0.97914  0.79567  1.0000
  H   H298      1.0  0.40943  0.05755  0.77724  1.0000
  H   H299      1.0  0.05031  0.97695  0.84015  1.0000
  H   H300      1.0  0.09583  0.15208  0.96733  1.0000
  H   H301      1.0  0.14087  0.79405  0.88327  1.0000
  H   H302      1.0  0.48983  0.06179  0.76390  1.0000
  C   C173      1.0  0.11572  0.67583  0.90870  1.0000
  C   C174      1.0  0.44822  0.73933  0.75672  1.0000
  C   C175      1.0  0.50800  0.05728  0.85601  1.0000
  H   H303      1.0  0.50266  0.14912  0.79495  1.0000
  H   H304      1.0  0.47908  0.83094  0.92415  1.0000
  C   C176      1.0  0.47603  0.08319  0.79422  1.0000
  H   H305      1.0  0.15672  0.69905  0.95526  1.0000
  H   H306      1.0  0.47527  0.99109  0.85333  1.0000
  S   S34       1.0  0.08364  0.16833  0.84612  1.0000
  H   H307      1.0  0.11270  0.00694  0.79983  1.0000
  H   H308      1.0  0.29664  0.15327  0.97595  1.0000
  H   H309      1.0  0.07994  0.71732  0.79304  1.0000
  C   C177      1.0  0.50776  0.72794  0.75273  1.0000
  H   H310      1.0  0.09878  0.86778  0.79958  1.0000
  C   C178      1.0  0.26671  0.09910  0.75668  1.0000
  H   H311      1.0  0.33481  0.05570  0.96082  1.0000
  H   H312      1.0  0.35536  0.81142  0.93532  1.0000
  S   S35       1.0  0.34968  0.72399  0.80795  1.0000
  C   C179      1.0  0.08628  0.73519  0.87650  1.0000
  H   H313      1.0  0.24053  0.08659  0.78805  1.0000
  C   C180      1.0  0.03520  0.70978  0.80963  1.0000
  H   H314      1.0  0.04670  0.84629  0.84434  1.0000
  H   H315      1.0  0.49235  0.08043  0.88382  1.0000
  C   C181      1.0  0.42172  0.70716  0.80135  1.0000
  C   C182      1.0  0.03674  0.84079  0.79807  1.0000
  H   H316      1.0  0.05217  0.74064  0.89779  1.0000
  H   H317      1.0  0.39849  0.70524  0.96660  1.0000
  C   C183      1.0  0.36962  0.82093  0.98226  1.0000
  H   H318      1.0  0.15144  0.95453  0.10919  1.0000
  Fe  Fe17      1.0  0.39498  0.88595  0.16303  1.0000
  C   C184      1.0  0.50770  0.10596  0.23067  1.0000
  C   C185      1.0  0.18627  0.00505  0.08848  1.0000
  S   S36       1.0  0.26012  0.82855  0.12413  1.0000
  C   C186      1.0  0.16610  0.04949  0.22363  1.0000
  H   H319      1.0  0.35939  0.75392  0.05624  1.0000
  H   H320      1.0  0.06664  0.01373  0.98616  1.0000
  C   C187      1.0  0.03059  0.70127  0.07011  1.0000
  H   H321      1.0  0.06957  0.69402  0.00465  1.0000
  H   H322      1.0  0.16077  0.08749  0.11331  1.0000
  H   H323      1.0  0.25087  0.03443  0.12041  1.0000
  H   H324      1.0  0.44318  0.08057  0.22250  1.0000
  H   H325      1.0  0.11944  0.06577  0.21358  1.0000
  C   C188      1.0  0.06531  0.02739  0.02677  1.0000
  H   H326      1.0  0.45212  0.67851  0.12277  1.0000
  C   C189      1.0  0.34848  0.74184  0.01084  1.0000
  Fe  Fe18      1.0  0.27185  0.83222  0.21620  1.0000
  C   C190      1.0  0.14753  0.96911  0.22551  1.0000
  H   H327      1.0  0.08615  0.92315  0.21643  1.0000
  C   C191      1.0  0.40057  0.70503  0.01148  1.0000
  H   H328      1.0  0.19299  0.11564  0.05406  1.0000
  H   H329      1.0  0.07647  0.78892  0.01337  1.0000
  H   H330      1.0  0.03103  0.96823  0.04072  1.0000
  H   H331      1.0  0.31766  0.13220  0.05030  1.0000
  H   H332      1.0  0.51731  0.85084  0.12742  1.0000
  H   H333      1.0  0.06918  0.12038  0.10474  1.0000
  H   H334      1.0  0.18183  0.98146  0.04881  1.0000
  C   C192      1.0  0.15429  0.06533  0.07250  1.0000
  C   C193      1.0  0.33676  0.13618  0.01471  1.0000
  H   H335      1.0  0.25415  0.01091  0.98487  1.0000
  S   S37       1.0  0.39922  0.77132  0.17802  1.0000
  S   S38       1.0  0.46856  0.97164  0.11601  1.0000
  H   H336      1.0  0.41588  0.11585  0.12448  1.0000
  Fe  Fe19      1.0  0.26486  0.71417  0.14442  1.0000
  H   H337      1.0  0.35487  0.03106  0.03621  1.0000
  C   C194      1.0  0.47811  0.16018  0.12925  1.0000
  H   H338      1.0  0.09239  0.72397  0.10594  1.0000
  H   H339      1.0  0.28301  0.70169  0.98652  1.0000
  H   H340      1.0  0.46415  0.74804  0.03977  1.0000
  C   C195      1.0  0.03914  0.72334  0.01202  1.0000
  H   H341      1.0  0.43487  0.86402  0.00596  1.0000
  C   C196      1.0  0.06756  0.15713  0.99439  1.0000
  C   C197      1.0  0.31951  0.05358  0.99833  1.0000
  H   H342      1.0  0.49812  0.12857  0.11134  1.0000
  H   H343      1.0  0.51736  0.06014  0.21834  1.0000
  H   H344      1.0  0.33344  0.84707  0.98440  1.0000
  S   S39       1.0  0.18195  0.84745  0.23335  1.0000
  C   C198      1.0  0.17226  0.06091  0.41963  1.0000
  H   H345      1.0  0.02736  0.71150  0.38523  1.0000
  H   H346      1.0  0.38913  0.84833  0.41560  1.0000
  H   H347      1.0  0.06200  0.88475  0.38929  1.0000
  H   H348      1.0  0.11948  0.99524  0.33488  1.0000
  C   C199      1.0  0.31131  0.73082  0.43546  1.0000
  H   H349      1.0  0.09818  0.11876  0.38738  1.0000
  H   H350      1.0  0.39725  0.72618  0.41114  1.0000
  H   H351      1.0  0.22699  0.11805  0.44191  1.0000
  H   H352      1.0  0.28636  0.80003  0.35975  1.0000
  H   H353      1.0  0.04225  0.01281  0.37817  1.0000
  H   H354      1.0  0.24581  0.69573  0.42570  1.0000
  N   N12       1.0  0.08207  0.06422  0.46485  1.0000
  S   S40       1.0  0.40770  0.90234  0.25404  1.0000
  C   C200      1.0  0.09474  0.06387  0.41019  1.0000
  S   S41       1.0  0.26891  0.71384  0.23450  1.0000
  C   C201      1.0  0.33594  0.68478  0.40925  1.0000
  H   H355      1.0  0.30765  0.84277  0.42802  1.0000
  C   C202      1.0  0.20779  0.94829  0.23715  1.0000
  C   C203      1.0  0.28721  0.00800  0.24912  1.0000
  H   H356      1.0  0.17300  0.10254  0.33470  1.0000
  H   H357      1.0  0.13850  0.67137  0.29233  1.0000
  H   H358      1.0  0.17754  0.01151  0.44666  1.0000
  Fe  Fe20      1.0  0.40446  0.78360  0.26649  1.0000
  C   C204      1.0  0.32453  0.81021  0.40792  1.0000
  H   H359      1.0  0.22860  0.04820  0.36895  1.0000
  C   C205      1.0  0.17292  0.05086  0.36093  1.0000
  H   H360      1.0  0.10529  0.83584  0.45044  1.0000
  H   H361      1.0  0.12710  0.85032  0.38665  1.0000
  S   S42       1.0  0.49476  0.76550  0.34915  1.0000
  C   C206      1.0  0.07955  0.83690  0.40179  1.0000
  C   C207      1.0  0.30613  0.08857  0.24838  1.0000
  H   H362      1.0  0.29526  0.67344  0.36172  1.0000
  H   H363      1.0  0.36739  0.13461  0.25704  1.0000
  H   H364      1.0  0.33409  0.99226  0.25893  1.0000
  H   H365      1.0  0.03623  0.93632  0.45652  1.0000
  H   H366      1.0  0.02989  0.14380  0.43311  1.0000
  H   H367      1.0  0.34703  0.74424  0.48363  1.0000
  C   C208      1.0  0.24512  0.10913  0.23451  1.0000
  C   C209      1.0  0.48274  0.98520  0.63928  1.0000
  S   S43       1.0  0.26531  0.73937  0.63394  1.0000
  C   C210      1.0  0.27389  0.05458  0.67549  1.0000
  C   C211      1.0  0.15856  0.13130  0.50691  1.0000
  H   H368      1.0  0.41866  0.13529  0.51590  1.0000
  Fe  Fe21      1.0  0.19571  0.86554  0.68071  1.0000
  H   H369      1.0  0.49191  0.92039  0.52969  1.0000
  H   H370      1.0  0.49266  0.83087  0.51670  1.0000
  C   C212      1.0  0.49263  0.94578  0.69071  1.0000
  H   H371      1.0  0.21023  0.11854  0.52196  1.0000
  H   H372      1.0  0.04198  0.79044  0.71087  1.0000
  H   H373      1.0  0.12448  0.98527  0.52130  1.0000
  C   C213      1.0  0.33542  0.13063  0.67635  1.0000
  H   H374      1.0  0.49968  0.72235  0.48561  1.0000
  H   H375      1.0  0.16016  0.10274  0.59416  1.0000
  S   S44       1.0  0.16515  0.94172  0.71466  1.0000
  Fe  Fe22      1.0  0.13935  0.72078  0.60507  1.0000
  H   H376      1.0  0.25320  0.00838  0.64359  1.0000
  H   H377      1.0  0.06578  0.89325  0.59180  1.0000
  H   H378      1.0  0.44225  0.89185  0.69294  1.0000
  C   C214      1.0  0.15899  0.15072  0.56419  1.0000
  H   H379      1.0  0.42344  0.77370  0.72567  1.0000
  H   H380      1.0  0.08839  0.15099  0.72673  1.0000
  H   H381      1.0  0.34281  0.13168  0.53457  1.0000
  H   H382      1.0  0.36092  0.14236  0.64482  1.0000
  C   C215      1.0  0.23939  0.03867  0.71547  1.0000
  Fe  Fe23      1.0  0.28312  0.76544  0.72464  1.0000
  Fe  Fe24      1.0  0.30018  0.86890  0.62312  1.0000
  S   S45       1.0  0.17297  0.84851  0.58713  1.0000
  S   S46       1.0  0.15388  0.73667  0.69653  1.0000
  S   S47       1.0  0.32564  0.89575  0.71573  1.0000
  S   S48       1.0  0.38558  0.94987  0.58201  1.0000
  H   H383      1.0  0.03398  0.00252  0.55971  1.0000
  H   H384      1.0  0.10639  0.15848  0.55660  1.0000
  C   C216      1.0  0.06622  0.98487  0.49134  1.0000
