data_image0
_chemical_formula_structural       C2NH3CH2CHCH2CHC2HCH2CH2C2H2CH2C2H2C2HC2NC3H5CHC3FeS2FeS2FeSFeS3CHC2H4C4H2C2HCNC7SH11C2HC2H2CH4CNFeSHFeSCSFeSFeS2HFeSCS2H2C6H5CSC2H2NH2CHC2HCH2CH3C2H5FeHC3H2SCH3C2HCHC3H3CNHC2H2C2HCH2SC2HSH2NHC2HCHC3H3SH2SC3H3C2HFeCSHC2HFeC2HSHCH2CHFeS2FeS2FeHFeHS2C2H4C2HC2H2C3H5CNHCHCHC2H3CH2CHC2HFeS2FeS2FeSFeS3C5H2CH2C2HC3H6CH5CHC3HC3H3NH3CHCH2SCHC3H2SH5C2H2CH2NH3C2HCSC2HC6HC2H2CH2NHC2H2SH2CHC3HC2HC2HFeSH2CFeSFeS2FeS2H2FeS2C7H4CHNCH2C2H5FeSHC2HC4H2CHCH3C2HC4H2CH5NCH2FeS2FeS2FeCFeCS2N2H3CHC2H3C2H2CHCH2CH2C2HC2H4CH4C2H3CHSC4HCH2FeCSH2S2C4HCH2SHC2H3C2FeCNH5C2H2CH3CHCH5
_chemical_formula_sum              "C240 N16 H288 Fe32 S64"
_cell_length_a       28.2878
_cell_length_b       31.5448
_cell_length_c       32.2922
_cell_angle_alpha    88.8609
_cell_angle_beta     89.7724
_cell_angle_gamma    89.5728

_space_group_name_H-M_alt    "P 1"
_space_group_IT_number       1

loop_
  _space_group_symop_operation_xyz
  'x, y, z'

loop_
  _atom_site_type_symbol
  _atom_site_label
  _atom_site_symmetry_multiplicity
  _atom_site_fract_x
  _atom_site_fract_y
  _atom_site_fract_z
  _atom_site_occupancy
  C   C1        1.0  0.27643  0.26630  0.46705  1.0000
  C   C2        1.0  0.48293  0.27329  0.25396  1.0000
  N   N1        1.0  0.13686  0.12965  0.45875  1.0000
  H   H1        1.0  0.20126  0.16391  0.44636  1.0000
  H   H2        1.0  0.31449  0.31001  0.42672  1.0000
  H   H3        1.0  0.16194  0.16208  0.40339  1.0000
  C   C3        1.0  0.45772  0.24231  0.44111  1.0000
  H   H4        1.0  0.09796  0.18841  0.44741  1.0000
  H   H5        1.0  0.19529  0.11556  0.41841  1.0000
  C   C4        1.0  0.30620  0.30108  0.45841  1.0000
  H   H6        1.0  0.02464  0.10523  0.35623  1.0000
  C   C5        1.0  0.44183  0.07246  0.13381  1.0000
  H   H7        1.0  0.13435  0.18856  0.49174  1.0000
  H   H8        1.0  0.45736  0.32806  0.37590  1.0000
  C   C6        1.0  0.10437  0.10157  0.43634  1.0000
  H   H9        1.0  0.44559  0.31950  0.29081  1.0000
  C   C7        1.0  0.47970  0.30874  0.27978  1.0000
  C   C8        1.0  0.41116  0.05379  0.10569  1.0000
  H   H10       1.0  0.50639  0.24759  0.36496  1.0000
  C   C9        1.0  0.07722  0.11774  0.40255  1.0000
  H   H11       1.0  0.45113  0.25680  0.24542  1.0000
  H   H12       1.0  0.26182  0.24874  0.44175  1.0000
  C   C10       1.0  0.17542  0.14335  0.43041  1.0000
  H   H13       1.0  0.39467  0.14697  0.49775  1.0000
  H   H14       1.0  0.45783  0.13332  0.44621  1.0000
  C   C11       1.0  0.11113  0.16786  0.47318  1.0000
  C   C12       1.0  0.04627  0.09190  0.38093  1.0000
  H   H15       1.0  0.08037  0.15888  0.49296  1.0000
  H   H16       1.0  0.46939  0.32498  0.46776  1.0000
  C   C13       1.0  0.42162  0.24870  0.47103  1.0000
  H   H17       1.0  0.42999  0.09893  0.15222  1.0000
  H   H18       1.0  0.42640  0.27892  0.37129  1.0000
  C   C14       1.0  0.32601  0.32351  0.49093  1.0000
  C   C15       1.0  0.44782  0.16568  0.45311  1.0000
  H   H19       1.0  0.41317  0.31366  0.41323  1.0000
  H   H20       1.0  0.49697  0.19149  0.41011  1.0000
  C   C16       1.0  0.37495  0.03591  0.02189  1.0000
  C   C17       1.0  0.47023  0.19958  0.43261  1.0000
  H   H21       1.0  0.07943  0.15061  0.39280  1.0000
  C   C18       1.0  0.09972  0.05761  0.44617  1.0000
  C   C19       1.0  0.44239  0.30082  0.39383  1.0000
  N   N2        1.0  0.47916  0.27910  0.41909  1.0000
  C   C20       1.0  0.04235  0.04909  0.39153  1.0000
  C   C21       1.0  0.48806  0.05754  0.13800  1.0000
  C   C22       1.0  0.49788  0.30956  0.44936  1.0000
  H   H22       1.0  0.40434  0.05504  0.00839  1.0000
  H   H23       1.0  0.18194  0.08173  0.48732  1.0000
  H   H24       1.0  0.40996  0.28020  0.47883  1.0000
  H   H25       1.0  0.11825  0.04240  0.47164  1.0000
  H   H26       1.0  0.35073  0.05807  0.03793  1.0000
  C   C23       1.0  0.15890  0.10895  0.49572  1.0000
  H   H27       1.0  0.37565  0.06642  0.10356  1.0000
  C   C24       1.0  0.41229  0.17323  0.48216  1.0000
  C   C25       1.0  0.39916  0.21469  0.49103  1.0000
  C   C26       1.0  0.06941  0.03191  0.42370  1.0000
  Fe  Fe1       1.0  0.12489  0.12588  0.61223  1.0000
  S   S1        1.0  0.20417  0.12436  0.60571  1.0000
  S   S2        1.0  0.08857  0.06461  0.59463  1.0000
  Fe  Fe2       1.0  0.12482  0.21550  0.64755  1.0000
  S   S3        1.0  0.20409  0.21994  0.64221  1.0000
  S   S4        1.0  0.08992  0.27679  0.66921  1.0000
  Fe  Fe3       1.0  0.19635  0.19096  0.57989  1.0000
  S   S5        1.0  0.22979  0.20892  0.51748  1.0000
  Fe  Fe4       1.0  0.20495  0.15316  0.66878  1.0000
  S   S6        1.0  0.25456  0.13998  0.72327  1.0000
  S   S7        1.0  0.11676  0.19066  0.58285  1.0000
  S   S8        1.0  0.12606  0.15037  0.67755  1.0000
  C   C27       1.0  0.04830  0.05898  0.55336  1.0000
  H   H28       1.0  0.13171  0.09788  0.51837  1.0000
  C   C28       1.0  0.26554  0.25411  0.50814  1.0000
  C   C29       1.0  0.28485  0.27691  0.54057  1.0000
  H   H29       1.0  0.33077  0.32807  0.55731  1.0000
  H   H30       1.0  0.27701  0.26775  0.57231  1.0000
  H   H31       1.0  0.04173  0.33457  0.85942  1.0000
  H   H32       1.0  0.05758  0.35305  0.70726  1.0000
  C   C30       1.0  0.27261  0.08885  0.74145  1.0000
  C   C31       1.0  0.30384  0.08557  0.77519  1.0000
  C   C32       1.0  0.05973  0.26880  0.85227  1.0000
  C   C33       1.0  0.31528  0.31114  0.53195  1.0000
  H   H33       1.0  0.31661  0.11408  0.78930  1.0000
  H   H34       1.0  0.11091  0.36039  0.81966  1.0000
  C   C34       1.0  0.04987  0.28514  0.71084  1.0000
  C   C35       1.0  0.31886  0.04563  0.79081  1.0000
  H   H35       1.0  0.16654  0.31051  0.78880  1.0000
  C   C36       1.0  0.10613  0.32660  0.82464  1.0000
  N   N3        1.0  0.16435  0.22340  0.79142  1.0000
  C   C37       1.0  0.21332  0.23070  0.80582  1.0000
  C   C38       1.0  0.15332  0.17799  0.79968  1.0000
  C   C39       1.0  0.16287  0.23048  0.74601  1.0000
  C   C40       1.0  0.13116  0.25324  0.81154  1.0000
  C   C41       1.0  0.09104  0.23956  0.83479  1.0000
  C   C42       1.0  0.13770  0.29771  0.80704  1.0000
  C   C43       1.0  0.50319  0.05029  0.97575  1.0000
  S   S9        1.0  0.46027  0.04631  0.93628  1.0000
  H   H36       1.0  0.03387  0.21935  0.72217  1.0000
  H   H37       1.0  0.21560  0.22762  0.84013  1.0000
  H   H38       1.0  0.23872  0.20746  0.79223  1.0000
  H   H39       1.0  0.22652  0.26257  0.79645  1.0000
  H   H40       1.0  0.15452  0.17001  0.83336  1.0000
  H   H41       1.0  0.17924  0.15656  0.78423  1.0000
  H   H42       1.0  0.11805  0.16956  0.78717  1.0000
  H   H43       1.0  0.17266  0.26324  0.73624  1.0000
  H   H44       1.0  0.18764  0.20882  0.72984  1.0000
  H   H45       1.0  0.12678  0.22488  0.73394  1.0000
  H   H46       1.0  0.08223  0.20655  0.83899  1.0000
  C   C44       1.0  0.02473  0.09386  0.53554  1.0000
  C   C45       1.0  0.02709  0.25159  0.73143  1.0000
  H   H47       1.0  0.34291  0.04363  0.81675  1.0000
  C   C46       1.0  0.25648  0.05170  0.72343  1.0000
  C   C47       1.0  0.04016  0.32691  0.72304  1.0000
  H   H48       1.0  0.23239  0.05373  0.69751  1.0000
  H   H49       1.0  0.02814  0.25799  0.86834  1.0000
  C   C48       1.0  0.06724  0.31216  0.84721  1.0000
  H   H50       1.0  0.18196  0.13114  0.51261  1.0000
  H   H51       1.0  0.03134  0.12531  0.54682  1.0000
  H   H52       1.0  0.37109  0.22068  0.51329  1.0000
  H   H53       1.0  0.48348  0.11460  0.98966  1.0000
  C   C49       1.0  0.50703  0.08843  0.99720  1.0000
  N   N4        1.0  0.34165  0.60329  0.37936  1.0000
  Fe  Fe5       1.0  0.09967  0.63696  0.10142  1.0000
  S   S10       1.0  0.17627  0.64272  0.08396  1.0000
  H   H54       1.0  0.37573  0.58754  0.32199  1.0000
  Fe  Fe6       1.0  0.18995  0.65124  0.15211  1.0000
  S   S11       1.0  0.25949  0.62612  0.17918  1.0000
  C   C50       1.0  0.37594  0.63659  0.39061  1.0000
  S   S12       1.0  0.11415  0.63931  0.16998  1.0000
  Fe  Fe7       1.0  0.38611  0.40210  0.42368  1.0000
  S   S13       1.0  0.46277  0.42035  0.41919  1.0000
  Fe  Fe8       1.0  0.36021  0.45550  0.34630  1.0000
  S   S14       1.0  0.43513  0.47690  0.33615  1.0000
  S   S15       1.0  0.29392  0.47455  0.30991  1.0000
  H   H55       1.0  0.30553  0.55255  0.41268  1.0000
  Fe  Fe9       1.0  0.43732  0.48642  0.40531  1.0000
  S   S16       1.0  0.46166  0.54916  0.43215  1.0000
  C   C51       1.0  0.22343  0.60645  0.32348  1.0000
  S   S17       1.0  0.36092  0.46929  0.41442  1.0000
  S   S18       1.0  0.03914  0.59841  0.07536  1.0000
  H   H56       1.0  0.35852  0.56932  0.43628  1.0000
  H   H57       1.0  0.05790  0.52512  0.12842  1.0000
  C   C52       1.0  0.26821  0.58326  0.21489  1.0000
  C   C53       1.0  0.23091  0.55797  0.22911  1.0000
  C   C54       1.0  0.23962  0.52437  0.25762  1.0000
  C   C55       1.0  0.28555  0.51580  0.27233  1.0000
  C   C56       1.0  0.32295  0.54064  0.25751  1.0000
  C   C57       1.0  0.31425  0.57428  0.22909  1.0000
  H   H58       1.0  0.19537  0.56433  0.21831  1.0000
  H   H59       1.0  0.21052  0.50514  0.26872  1.0000
  H   H60       1.0  0.35858  0.53374  0.26773  1.0000
  H   H61       1.0  0.34341  0.59340  0.21800  1.0000
  H   H62       1.0  0.11509  0.68627  0.01015  1.0000
  C   C58       1.0  0.03620  0.56588  0.03135  1.0000
  S   S19       1.0  0.37975  0.38629  0.35622  1.0000
  C   C59       1.0  0.29951  0.61988  0.35711  1.0000
  C   C60       1.0  0.36666  0.57279  0.35255  1.0000
  H   H63       1.0  0.13049  0.48130  0.13246  1.0000
  H   H64       1.0  0.13188  0.40960  0.10267  1.0000
  N   N5        1.0  0.32810  0.68323  0.07594  1.0000
  H   H65       1.0  0.40012  0.56118  0.36678  1.0000
  H   H66       1.0  0.34512  0.54422  0.34671  1.0000
  C   C61       1.0  0.07654  0.54885  0.01260  1.0000
  H   H67       1.0  0.47305  0.37901  0.21798  1.0000
  C   C62       1.0  0.36581  0.66878  0.10497  1.0000
  C   C63       1.0  0.32724  0.58105  0.41832  1.0000
  H   H68       1.0  0.26426  0.55856  0.35398  1.0000
  C   C64       1.0  0.30241  0.64488  0.06274  1.0000
  H   H69       1.0  0.35155  0.64744  0.12998  1.0000
  H   H70       1.0  0.11111  0.55535  0.02507  1.0000
  C   C65       1.0  0.09914  0.46893  0.11787  1.0000
  H   H71       1.0  0.19051  0.65932  0.29171  1.0000
  H   H72       1.0  0.28865  0.62618  0.08986  1.0000
  H   H73       1.0  0.35932  0.66078  0.41073  1.0000
  C   C66       1.0  0.22023  0.64867  0.31039  1.0000
  C   C67       1.0  0.26253  0.59208  0.34620  1.0000
  H   H74       1.0  0.30646  0.60239  0.43862  1.0000
  H   H75       1.0  0.27084  0.65335  0.04375  1.0000
  H   H76       1.0  0.39406  0.65108  0.08838  1.0000
  H   H77       1.0  0.32580  0.62342  0.04481  1.0000
  H   H78       1.0  0.19620  0.58430  0.31490  1.0000
  Fe  Fe10      1.0  0.45501  0.40880  0.35099  1.0000
  H   H79       1.0  0.39148  0.65238  0.36267  1.0000
  C   C68       1.0  0.05946  0.41279  0.08203  1.0000
  C   C69       1.0  0.09983  0.42862  0.10105  1.0000
  C   C70       1.0  0.29488  0.66297  0.34374  1.0000
  H   H80       1.0  0.40650  0.62297  0.40829  1.0000
  H   H81       1.0  0.06172  0.38140  0.06934  1.0000
  S   S20       1.0  0.36790  0.36435  0.48232  1.0000
  C   C71       1.0  0.50513  0.55608  0.47109  1.0000
  H   H82       1.0  0.32133  0.68640  0.35012  1.0000
  H   H83       1.0  0.51096  0.44456  0.24076  1.0000
  H   H84       1.0  0.28006  0.69376  0.12666  1.0000
  C   C72       1.0  0.25575  0.67691  0.32066  1.0000
  C   C73       1.0  0.05815  0.49353  0.11569  1.0000
  H   H85       1.0  0.49211  0.62339  0.47435  1.0000
  C   C74       1.0  0.04824  0.68727  0.30386  1.0000
  H   H86       1.0  0.06756  0.66944  0.28083  1.0000
  C   C75       1.0  0.01764  0.47815  0.09652  1.0000
  C   C76       1.0  0.50739  0.38765  0.20549  1.0000
  C   C77       1.0  0.01705  0.43706  0.07917  1.0000
  H   H87       1.0  0.01287  0.65453  0.00445  1.0000
  H   H88       1.0  0.01333  0.38343  0.01300  1.0000
  H   H89       1.0  0.38245  0.69542  0.12132  1.0000
  C   C78       1.0  0.04880  0.65261  0.92782  1.0000
  N   N6        1.0  0.06364  0.68078  0.96148  1.0000
  H   H90       1.0  0.13702  0.66144  0.96497  1.0000
  C   C79       1.0  0.05623  0.58728  0.88803  1.0000
  C   C80       1.0  0.07241  0.61384  0.91902  1.0000
  H   H91       1.0  0.10286  0.60269  0.93618  1.0000
  H   H92       1.0  0.07387  0.55719  0.88264  1.0000
  C   C81       1.0  0.07202  0.52284  0.97785  1.0000
  C   C82       1.0  0.10517  0.66451  0.98505  1.0000
  H   H93       1.0  0.10334  0.50976  0.96343  1.0000
  C   C83       1.0  0.02726  0.51354  0.96168  1.0000
  H   H94       1.0  0.31363  0.67584  0.98982  1.0000
  H   H95       1.0  0.09763  0.63354  0.00057  1.0000
  S   S21       1.0  0.02313  0.48148  0.91743  1.0000
  C   C84       1.0  0.02413  0.68587  0.99140  1.0000
  C   C85       1.0  0.01638  0.59829  0.86498  1.0000
  H   H96       1.0  0.31286  0.84337  0.06549  1.0000
  S   S22       1.0  0.04630  0.73805  0.20354  1.0000
  H   H97       1.0  0.09700  0.73898  0.30225  1.0000
  H   H98       1.0  0.24548  0.79486  0.07866  1.0000
  N   N7        1.0  0.39356  0.00173  0.04979  1.0000
  H   H99       1.0  0.25325  0.70968  0.31006  1.0000
  C   C86       1.0  0.47342  0.00497  0.08600  1.0000
  C   C87       1.0  0.04116  0.78466  0.23299  1.0000
  H   H100      1.0  0.41882  0.79521  0.02286  1.0000
  C   C88       1.0  0.07391  0.84676  0.26552  1.0000
  H   H101      1.0  0.11316  0.80490  0.22529  1.0000
  C   C89       1.0  0.07934  0.81157  0.23961  1.0000
  C   C90       1.0  0.25692  0.80159  0.04725  1.0000
  C   C91       1.0  0.29477  0.82949  0.03968  1.0000
  H   H102      1.0  0.10376  0.86716  0.27088  1.0000
  H   H103      1.0  0.36621  0.95585  0.09352  1.0000
  H   H104      1.0  0.38687  0.75220  0.07982  1.0000
  S   S23       1.0  0.18717  0.74611  0.02188  1.0000
  H   H105      1.0  0.31047  0.74015  0.10919  1.0000
  H   H106      1.0  0.42805  0.94093  0.04160  1.0000
  S   S24       1.0  0.18144  0.72272  0.14947  1.0000
  C   C92       1.0  0.37861  0.74303  0.04866  1.0000
  C   C93       1.0  0.03037  0.85539  0.28489  1.0000
  C   C94       1.0  0.34850  0.70824  0.04097  1.0000
  H   H107      1.0  0.06555  0.99870  0.43227  1.0000
  H   H108      1.0  0.33229  0.00414  0.08999  1.0000
  H   H109      1.0  0.26356  0.71914  0.07879  1.0000
  C   C95       1.0  0.06480  0.72653  0.31601  1.0000
  C   C96       1.0  0.29423  0.71029  0.09864  1.0000
  H   H110      1.0  0.32878  0.96608  0.04964  1.0000
  Fe  Fe11      1.0  0.10424  0.71010  0.16277  1.0000
  C   C97       1.0  0.39716  0.76792  0.01629  1.0000
  S   S25       1.0  0.08643  0.70688  0.09531  1.0000
  H   H111      1.0  0.01757  0.02930  0.37540  1.0000
  C   C98       1.0  0.35341  0.98122  0.07175  1.0000
  C   C99       1.0  0.42627  0.01991  0.08035  1.0000
  H   H112      1.0  0.02098  0.80129  0.41286  1.0000
  Fe  Fe12      1.0  0.16408  0.71328  0.08220  1.0000
  C   C100      1.0  0.23381  0.78284  0.01415  1.0000
  C   C101      1.0  0.41605  0.96926  0.02333  1.0000
  H   H113      1.0  0.44641  0.98252  0.00561  1.0000
  S   S26       1.0  0.02550  0.89918  0.31824  1.0000
  H   H114      1.0  0.05305  0.78173  0.35055  1.0000
  C   C102      1.0  0.03881  0.75095  0.34386  1.0000
  H   H115      1.0  0.48839  0.97957  0.06814  1.0000
  H   H116      1.0  0.03435  0.70578  0.01792  1.0000
  C   C103      1.0  0.50357  0.02359  0.11454  1.0000
  H   H117      1.0  0.02755  0.02995  0.27778  1.0000
  Fe  Fe13      1.0  0.38537  0.90193  0.93035  1.0000
  S   S27       1.0  0.46262  0.91934  0.93125  1.0000
  S   S28       1.0  0.35871  0.87324  0.99152  1.0000
  Fe  Fe14      1.0  0.37032  0.94652  0.84597  1.0000
  S   S29       1.0  0.44557  0.96793  0.84197  1.0000
  S   S30       1.0  0.32068  0.95745  0.79130  1.0000
  Fe  Fe15      1.0  0.46396  0.90169  0.86393  1.0000
  H   H118      1.0  0.40341  0.84233  0.75179  1.0000
  Fe  Fe16      1.0  0.43824  0.98351  0.90928  1.0000
  H   H119      1.0  0.47284  0.74146  0.77089  1.0000
  S   S31       1.0  0.38878  0.87875  0.86471  1.0000
  S   S32       1.0  0.36086  0.96756  0.91161  1.0000
  C   C104      1.0  0.46939  0.87355  0.69958  1.0000
  C   C105      1.0  0.30266  0.00848  0.77284  1.0000
  H   H120      1.0  0.08997  0.74439  0.96836  1.0000
  H   H121      1.0  0.25866  0.98323  0.72499  1.0000
  H   H122      1.0  0.42621  0.81779  0.68837  1.0000
  H   H123      1.0  0.38536  0.89157  0.77309  1.0000
  C   C106      1.0  0.30931  0.83964  0.99900  1.0000
  C   C107      1.0  0.24801  0.79336  0.97345  1.0000
  H   H124      1.0  0.37342  0.87244  0.68465  1.0000
  C   C108      1.0  0.33740  0.70055  0.99883  1.0000
  C   C109      1.0  0.27149  0.01175  0.73906  1.0000
  H   H125      1.0  0.41599  0.95864  0.74746  1.0000
  H   H126      1.0  0.36177  0.92321  0.70561  1.0000
  C   C110      1.0  0.07638  0.72305  0.94399  1.0000
  C   C111      1.0  0.41546  0.87501  0.75793  1.0000
  C   C112      1.0  0.28547  0.82173  0.96585  1.0000
  H   H127      1.0  0.05631  0.99100  0.55310  1.0000
  H   H128      1.0  0.29633  0.82925  0.93441  1.0000
  H   H129      1.0  0.23013  0.77933  0.94761  1.0000
  H   H130      1.0  0.10474  0.72022  0.92015  1.0000
  H   H131      1.0  0.47484  0.93966  0.75551  1.0000
  C   C113      1.0  0.44568  0.94114  0.73239  1.0000
  N   N8        1.0  0.43119  0.89803  0.71997  1.0000
  H   H132      1.0  0.40101  0.91855  0.66184  1.0000
  C   C114      1.0  0.03839  0.01814  0.53925  1.0000
  H   H133      1.0  0.34636  0.72008  0.93486  1.0000
  C   C115      1.0  0.46046  0.83231  0.68465  1.0000
  H   H134      1.0  0.04581  0.73966  0.92933  1.0000
  C   C116      1.0  0.39020  0.90317  0.69169  1.0000
  C   C117      1.0  0.49588  0.80846  0.66546  1.0000
  H   H135      1.0  0.46492  0.80338  0.81691  1.0000
  H   H136      1.0  0.45703  0.96079  0.70520  1.0000
  H   H137      1.0  0.44459  0.87258  0.78086  1.0000
  C   C118      1.0  0.50146  0.76389  0.77288  1.0000
  H   H138      1.0  0.39903  0.77977  0.95057  1.0000
  H   H139      1.0  0.48872  0.77651  0.65539  1.0000
  C   C119      1.0  0.35605  0.72580  0.96670  1.0000
  H   H140      1.0  0.35471  0.02306  0.99545  1.0000
  C   C120      1.0  0.49677  0.79909  0.79879  1.0000
  C   C121      1.0  0.38589  0.75935  0.97541  1.0000
  H   H141      1.0  0.39100  0.95723  0.99995  1.0000
  Fe  Fe17      1.0  0.66823  0.21253  0.10530  1.0000
  S   S33       1.0  0.59480  0.18564  0.10450  1.0000
  S   S34       1.0  0.67709  0.26119  0.05283  1.0000
  Fe  Fe18      1.0  0.69634  0.15551  0.17937  1.0000
  S   S35       1.0  0.62496  0.12481  0.18349  1.0000
  S   S36       1.0  0.75748  0.14183  0.22332  1.0000
  Fe  Fe19      1.0  0.62970  0.12245  0.11384  1.0000
  S   S37       1.0  0.61577  0.06336  0.07680  1.0000
  Fe  Fe20      1.0  0.59616  0.19120  0.17383  1.0000
  S   S38       1.0  0.52900  0.21578  0.20479  1.0000
  S   S39       1.0  0.70342  0.14859  0.11039  1.0000
  S   S40       1.0  0.66715  0.22244  0.17414  1.0000
  C   C122      1.0  0.81185  0.04618  0.29541  1.0000
  C   C123      1.0  0.76743  0.09106  0.24629  1.0000
  C   C124      1.0  0.80210  0.08623  0.27714  1.0000
  C   C125      1.0  0.81149  0.30717  0.05018  1.0000
  C   C126      1.0  0.74245  0.05540  0.23388  1.0000
  H   H142      1.0  0.82139  0.11369  0.28707  1.0000
  H   H143      1.0  0.64626  0.31671  0.18430  1.0000
  C   C127      1.0  0.52691  0.25937  0.23865  1.0000
  H   H144      1.0  0.51215  0.07250  0.15923  1.0000
  H   H145      1.0  0.59987  0.28107  0.10600  1.0000
  C   C128      1.0  0.56455  0.31641  0.27555  1.0000
  C   C129      1.0  0.57207  0.05941  0.03804  1.0000
  H   H146      1.0  0.67696  0.17415  0.02577  1.0000
  C   C130      1.0  0.73034  0.28632  0.03764  1.0000
  C   C131      1.0  0.77061  0.28494  0.06257  1.0000
  C   C132      1.0  0.56778  0.28092  0.24987  1.0000
  H   H147      1.0  0.77012  0.26727  0.09163  1.0000
  H   H148      1.0  0.54308  0.12212  0.04527  1.0000
  H   H149      1.0  0.89911  0.09442  0.24335  1.0000
  H   H150      1.0  0.97882  0.09563  0.27446  1.0000
  H   H151      1.0  0.60187  0.27028  0.23875  1.0000
  H   H152      1.0  0.59633  0.33317  0.28366  1.0000
  C   C133      1.0  0.96553  0.06650  0.26183  1.0000
  H   H153      1.0  0.83863  0.04296  0.31910  1.0000
  H   H154      1.0  0.71567  0.05868  0.21018  1.0000
  H   H155      1.0  0.67344  0.35940  0.15563  1.0000
  H   H156      1.0  0.67027  0.30869  0.13320  1.0000
  H   H157      1.0  0.62998  0.34349  0.07200  1.0000
  C   C134      1.0  0.65826  0.14934  0.00828  1.0000
  H   H158      1.0  0.53463  0.29619  0.37567  1.0000
  C   C135      1.0  0.65026  0.33140  0.15282  1.0000
  C   C136      1.0  0.92068  0.06579  0.24426  1.0000
  C   C137      1.0  0.52055  0.33069  0.29038  1.0000
  H   H159      1.0  0.98718  0.35444  0.07967  1.0000
  C   C138      1.0  0.54105  0.09289  0.02848  1.0000
  C   C139      1.0  0.53099  0.36054  0.17846  1.0000
  C   C140      1.0  0.57890  0.30171  0.12681  1.0000
  H   H160      1.0  0.54423  0.30698  0.11135  1.0000
  H   H161      1.0  0.84232  0.30638  0.06989  1.0000
  H   H162      1.0  0.57317  0.28305  0.15601  1.0000
  N   N9        1.0  0.60341  0.34222  0.13476  1.0000
  H   H163      1.0  0.67590  0.11861  0.01613  1.0000
  H   H164      1.0  0.51296  0.33154  0.17129  1.0000
  H   H165      1.0  0.54761  0.25077  0.40781  1.0000
  C   C141      1.0  0.81273  0.33036  0.01252  1.0000
  H   H166      1.0  0.52263  0.29361  0.47146  1.0000
  C   C142      1.0  0.51865  0.26756  0.39083  1.0000
  H   H167      1.0  0.62161  0.14732  0.02066  1.0000
  H   H168      1.0  0.51716  0.33611  0.43366  1.0000
  S   S41       1.0  0.93669  0.04087  0.45228  1.0000
  C   C143      1.0  0.98083  0.04693  0.49037  1.0000
  H   H169      1.0  0.97231  0.11487  0.49111  1.0000
  C   C144      1.0  0.63204  0.12574  0.94143  1.0000
  C   C145      1.0  0.62438  0.05096  0.92264  1.0000
  C   C146      1.0  0.64837  0.08305  0.94295  1.0000
  H   H170      1.0  0.57358  0.16518  0.91702  1.0000
  H   H171      1.0  0.65895  0.22668  0.97312  1.0000
  S   S42       1.0  0.94325  0.31005  0.81618  1.0000
  H   H172      1.0  0.72776  0.13087  0.95584  1.0000
  H   H173      1.0  0.56376  0.03515  0.88610  1.0000
  H   H174      1.0  0.67930  0.07397  0.96065  1.0000
  H   H175      1.0  0.70944  0.16576  0.91413  1.0000
  H   H176      1.0  0.60145  0.20448  0.97060  1.0000
  C   C147      1.0  0.58966  0.13410  0.91900  1.0000
  C   C148      1.0  0.63770  0.20228  0.95720  1.0000
  H   H177      1.0  0.63672  0.21184  0.92386  1.0000
  H   H178      1.0  0.77312  0.34906  0.95836  1.0000
  C   C149      1.0  0.77266  0.33117  0.98730  1.0000
  H   H179      1.0  0.93760  0.08741  0.59363  1.0000
  H   H180      1.0  0.72796  0.18662  0.96294  1.0000
  N   N10       1.0  0.65822  0.15909  0.96322  1.0000
  H   H181      1.0  0.70047  0.31095  0.98059  1.0000
  H   H182      1.0  0.53274  0.10826  0.88315  1.0000
  H   H183      1.0  0.97655  0.23381  0.77883  1.0000
  C   C150      1.0  0.70792  0.16054  0.94831  1.0000
  C   C151      1.0  0.99443  0.25991  0.76341  1.0000
  H   H184      1.0  0.88152  0.04947  0.55222  1.0000
  C   C152      1.0  0.56586  0.10168  0.89897  1.0000
  S   S43       1.0  0.86430  0.35924  0.99928  1.0000
  C   C153      1.0  0.93510  0.05323  0.59724  1.0000
  C   C154      1.0  0.58327  0.06029  0.90062  1.0000
  H   H185      1.0  0.99202  0.04932  0.64114  1.0000
  C   C155      1.0  0.99102  0.08780  0.50427  1.0000
  C   C156      1.0  0.98458  0.30169  0.77552  1.0000
  C   C157      1.0  0.00788  0.33519  0.75534  1.0000
  C   C158      1.0  0.90280  0.03081  0.57356  1.0000
  C   C159      1.0  0.96583  0.03181  0.62408  1.0000
  C   C160      1.0  0.73153  0.30951  0.00001  1.0000
  H   H186      1.0  0.90245  0.43432  0.04256  1.0000
  C   C161      1.0  0.98629  0.40892  0.01554  1.0000
  C   C162      1.0  0.93344  0.44868  0.05817  1.0000
  H   H187      1.0  0.63128  0.41906  0.16467  1.0000
  H   H188      1.0  0.96008  0.56919  0.02978  1.0000
  C   C163      1.0  0.52870  0.42474  0.21833  1.0000
  H   H189      1.0  0.94145  0.47837  0.04047  1.0000
  H   H190      1.0  0.63236  0.39330  0.09707  1.0000
  N   N11       1.0  0.97481  0.41934  0.05902  1.0000
  H   H191      1.0  0.99325  0.64115  0.31052  1.0000
  C   C164      1.0  0.61082  0.36419  0.09425  1.0000
  C   C165      1.0  0.59685  0.40919  0.17556  1.0000
  H   H192      1.0  0.98760  0.49946  0.09526  1.0000
  H   H193      1.0  0.94737  0.68222  0.36010  1.0000
  S   S44       1.0  0.51867  0.37659  0.32115  1.0000
  H   H194      1.0  0.92162  0.45679  0.08995  1.0000
  H   H195      1.0  0.58972  0.46448  0.21352  1.0000
  C   C166      1.0  0.00613  0.67164  0.32032  1.0000
  H   H196      1.0  0.52689  0.49067  0.47538  1.0000
  C   C167      1.0  0.99149  0.55626  0.01538  1.0000
  C   C168      1.0  0.57321  0.43567  0.20319  1.0000
  C   C169      1.0  0.53238  0.52227  0.48675  1.0000
  H   H197      1.0  0.57647  0.37355  0.07994  1.0000
  C   C170      1.0  0.51287  0.59698  0.48627  1.0000
  C   C171      1.0  0.96008  0.38001  0.08135  1.0000
  H   H198      1.0  0.95296  0.38615  0.11463  1.0000
  C   C172      1.0  0.57686  0.37037  0.16291  1.0000
  C   C173      1.0  0.98002  0.69556  0.34849  1.0000
  H   H199      1.0  0.92724  0.36666  0.06793  1.0000
  Fe  Fe21      1.0  0.95542  0.44802  0.89904  1.0000
  S   S45       1.0  0.88318  0.45963  0.92575  1.0000
  H   H200      1.0  0.95464  0.39758  0.99892  1.0000
  H   H201      1.0  0.76880  0.56216  0.88875  1.0000
  C   C174      1.0  0.77866  0.61877  0.85160  1.0000
  Fe  Fe22      1.0  0.85720  0.44729  0.86097  1.0000
  S   S46       1.0  0.79179  0.48140  0.83478  1.0000
  Fe  Fe23      1.0  0.87996  0.38886  0.93568  1.0000
  S   S47       1.0  0.93020  0.44044  0.83304  1.0000
  S   S48       1.0  0.95417  0.37814  0.91300  1.0000
  Fe  Fe24      1.0  0.70867  0.66095  0.67150  1.0000
  S   S49       1.0  0.63717  0.63104  0.67388  1.0000
  S   S50       1.0  0.77273  0.63968  0.70956  1.0000
  H   H202      1.0  0.76512  0.55365  0.61667  1.0000
  H   H203      1.0  0.74348  0.48671  0.58455  1.0000
  Fe  Fe25      1.0  0.63737  0.63795  0.60428  1.0000
  S   S51       1.0  0.61999  0.57752  0.56962  1.0000
  S   S52       1.0  0.71165  0.66386  0.60171  1.0000
  C   C175      1.0  0.57497  0.57033  0.53211  1.0000
  C   C176      1.0  0.78792  0.52373  0.79782  1.0000
  C   C177      1.0  0.74300  0.53665  0.78357  1.0000
  C   C178      1.0  0.73782  0.57123  0.75561  1.0000
  C   C179      1.0  0.77758  0.59377  0.74210  1.0000
  C   C180      1.0  0.82252  0.58064  0.75604  1.0000
  C   C181      1.0  0.82777  0.54559  0.78350  1.0000
  H   H204      1.0  0.71198  0.52001  0.79462  1.0000
  H   H205      1.0  0.70303  0.58097  0.74537  1.0000
  H   H206      1.0  0.85349  0.59782  0.74569  1.0000
  H   H207      1.0  0.86251  0.53595  0.79414  1.0000
  C   C182      1.0  0.77380  0.44420  0.73148  1.0000
  H   H208      1.0  0.99972  0.43714  0.99813  1.0000
  N   N12       1.0  0.71565  0.50814  0.64310  1.0000
  C   C183      1.0  0.83276  0.46039  0.67963  1.0000
  H   H209      1.0  0.81661  0.61423  0.84939  1.0000
  H   H210      1.0  0.66946  0.52765  0.69263  1.0000
  C   C184      1.0  0.70684  0.65814  0.83119  1.0000
  C   C185      1.0  0.66808  0.51090  0.66264  1.0000
  H   H211      1.0  0.68290  0.50267  0.58318  1.0000
  H   H212      1.0  0.65234  0.47899  0.66772  1.0000
  H   H213      1.0  0.64263  0.52908  0.64272  1.0000
  H   H214      1.0  0.70529  0.57078  0.61658  1.0000
  H   H215      1.0  0.62507  0.65271  0.78758  1.0000
  Fe  Fe26      1.0  0.92359  0.37086  0.84969  1.0000
  S   S53       1.0  0.84873  0.37693  0.87335  1.0000
  H   H216      1.0  0.95241  0.52367  0.96833  1.0000
  C   C186      1.0  0.98700  0.53032  0.98067  1.0000
  C   C187      1.0  0.68049  0.62749  0.85416  1.0000
  H   H217      1.0  0.73780  0.56901  0.66419  1.0000
  C   C188      1.0  0.56720  0.52943  0.51696  1.0000
  C   C189      1.0  0.99300  0.63647  0.87217  1.0000
  C   C190      1.0  0.71024  0.48664  0.60298  1.0000
  C   C191      1.0  0.73178  0.55215  0.63482  1.0000
  H   H218      1.0  0.69935  0.45306  0.60780  1.0000
  H   H219      1.0  0.84702  0.42636  0.73680  1.0000
  C   C192      1.0  0.75091  0.48498  0.66896  1.0000
  H   H220      1.0  0.80994  0.49509  0.62617  1.0000
  C   C193      1.0  0.65315  0.67387  0.77505  1.0000
  H   H221      1.0  0.00346  0.57688  0.84178  1.0000
  H   H222      1.0  0.58826  0.50309  0.52859  1.0000
  H   H223      1.0  0.70433  0.46645  0.72090  1.0000
  C   C194      1.0  0.75173  0.58931  0.87380  1.0000
  C   C195      1.0  0.79860  0.48137  0.65544  1.0000
  H   H224      1.0  0.68194  0.56994  0.89151  1.0000
  C   C196      1.0  0.73939  0.46532  0.70770  1.0000
  C   C197      1.0  0.54744  0.60409  0.51671  1.0000
  C   C198      1.0  0.82041  0.44204  0.71769  1.0000
  C   C199      1.0  0.70274  0.59364  0.87508  1.0000
  H   H225      1.0  0.67563  0.65492  0.75385  1.0000
  H   H226      1.0  0.76463  0.43039  0.76149  1.0000
  C   C200      1.0  0.75681  0.65259  0.83031  1.0000
  H   H227      1.0  0.64234  0.62882  0.85517  1.0000
  H   H228      1.0  0.96202  0.64491  0.85405  1.0000
  H   H229      1.0  0.55308  0.63572  0.52795  1.0000
  H   H230      1.0  0.86913  0.45856  0.66903  1.0000
  H   H231      1.0  0.77977  0.67297  0.81220  1.0000
  N   N13       1.0  0.68220  0.69264  0.80791  1.0000
  C   C201      1.0  0.00897  0.66340  0.90298  1.0000
  H   H232      1.0  0.00072  0.36745  0.76435  1.0000
  H   H233      1.0  0.98949  0.69251  0.90759  1.0000
  Fe  Fe27      1.0  0.85750  0.94736  0.35082  1.0000
  S   S54       1.0  0.92697  0.98089  0.34799  1.0000
  S   S55       1.0  0.79916  0.95929  0.30387  1.0000
  Fe  Fe28      1.0  0.88892  0.88917  0.42281  1.0000
  S   S56       1.0  0.96129  0.91857  0.42467  1.0000
  S   S57       1.0  0.87871  0.83239  0.46642  1.0000
  Fe  Fe29      1.0  0.92258  0.98045  0.41759  1.0000
  C   C202      1.0  0.90276  0.02819  0.22855  1.0000
  Fe  Fe30      1.0  0.95952  0.91591  0.35513  1.0000
  C   C203      1.0  0.75224  0.01534  0.25210  1.0000
  S   S58       1.0  0.84994  0.95152  0.42004  1.0000
  S   S59       1.0  0.89040  0.88190  0.35364  1.0000
  N   N14       1.0  0.91181  0.94931  0.21406  1.0000
  N   N15       1.0  0.96568  0.76173  0.38908  1.0000
  H   H234      1.0  0.89457  0.88702  0.23851  1.0000
  H   H235      1.0  0.97993  0.92447  0.19494  1.0000
  H   H236      1.0  0.93918  0.75758  0.45183  1.0000
  C   C204      1.0  0.99748  0.79368  0.25197  1.0000
  H   H237      1.0  0.73272  0.98796  0.24231  1.0000
  C   C205      1.0  0.78696  0.01053  0.28290  1.0000
  C   C206      1.0  0.96025  0.73872  0.42932  1.0000
  H   H238      1.0  0.86342  0.97582  0.16870  1.0000
  H   H239      1.0  0.92076  0.78394  0.33948  1.0000
  H   H240      1.0  0.95829  0.83529  0.29209  1.0000
  C   C207      1.0  0.94456  0.93283  0.18206  1.0000
  C   C208      1.0  0.90903  0.91784  0.24862  1.0000
  H   H241      1.0  0.89560  0.78950  0.39034  1.0000
  H   H242      1.0  0.88566  0.92969  0.27363  1.0000
  C   C209      1.0  0.98580  0.80402  0.39773  1.0000
  H   H243      1.0  0.98928  0.82382  0.36897  1.0000
  C   C210      1.0  0.56815  0.02127  0.01664  1.0000
  H   H244      1.0  0.99766  0.96392  0.25069  1.0000
  H   H245      1.0  0.86725  0.02996  0.21635  1.0000
  C   C211      1.0  0.92974  0.98994  0.22982  1.0000
  H   H246      1.0  0.94407  0.91100  0.26268  1.0000
  H   H247      1.0  0.83708  0.96302  0.21852  1.0000
  C   C212      1.0  0.86398  0.95288  0.19533  1.0000
  C   C213      1.0  0.91812  0.76872  0.37078  1.0000
  H   H248      1.0  0.89811  0.73882  0.36759  1.0000
  C   C214      1.0  0.82647  0.82098  0.49496  1.0000
  C   C215      1.0  0.97543  0.99187  0.24780  1.0000
  H   H249      1.0  0.94984  0.95670  0.15662  1.0000
  H   H250      1.0  0.59194  0.99519  0.02396  1.0000
  H   H251      1.0  0.85151  0.92194  0.18368  1.0000
  H   H252      1.0  0.93099  0.90329  0.16815  1.0000
  C   C216      1.0  0.99202  0.82891  0.27766  1.0000
  H   H253      1.0  0.96786  0.77283  0.24718  1.0000
  H   H254      1.0  0.96290  0.82226  0.41917  1.0000
  H   H255      1.0  0.99770  0.98052  0.49728  1.0000
  H   H256      1.0  0.78886  0.87794  0.47689  1.0000
  C   C217      1.0  0.78778  0.84884  0.49513  1.0000
  C   C218      1.0  0.99517  0.73628  0.36067  1.0000
  H   H257      1.0  0.99528  0.73174  0.44358  1.0000
  H   H258      1.0  0.94143  0.70816  0.42622  1.0000
  H   H259      1.0  0.53983  0.01245  0.11761  1.0000
  C   C219      1.0  0.99289  0.02961  0.26357  1.0000
  H   H260      1.0  0.98911  0.97130  0.64783  1.0000
  S   S60       1.0  0.69301  0.78978  0.57158  1.0000
  C   C220      1.0  0.93183  0.96502  0.60439  1.0000
  C   C221      1.0  0.54282  0.75751  0.74946  1.0000
  C   C222      1.0  0.65070  0.71681  0.83596  1.0000
  C   C223      1.0  0.57510  0.82167  0.77842  1.0000
  H   H261      1.0  0.93260  0.93088  0.60766  1.0000
  C   C224      1.0  0.53350  0.82835  0.80147  1.0000
  H   H262      1.0  0.58680  0.87731  0.67157  1.0000
  H   H263      1.0  0.85835  0.90875  0.59579  1.0000
  Fe  Fe31      1.0  0.67736  0.72812  0.60697  1.0000
  C   C225      1.0  0.78349  0.77289  0.54192  1.0000
  S   S61       1.0  0.60291  0.70250  0.60479  1.0000
  H   H264      1.0  0.71735  0.86039  0.51868  1.0000
  H   H265      1.0  0.81794  0.95244  0.60214  1.0000
  S   S62       1.0  0.68031  0.72762  0.67666  1.0000
  S   S63       1.0  0.54677  0.71284  0.71716  1.0000
  C   C226      1.0  0.74476  0.80071  0.54214  1.0000
  C   C227      1.0  0.57974  0.78652  0.75243  1.0000
  C   C228      1.0  0.89446  0.93354  0.52328  1.0000
  C   C229      1.0  0.53372  0.01660  0.98577  1.0000
  H   H266      1.0  0.87089  0.91430  0.50369  1.0000
  C   C230      1.0  0.83446  0.98738  0.52569  1.0000
  H   H267      1.0  0.53143  0.98722  0.96922  1.0000
  H   H268      1.0  0.61157  0.78222  0.73431  1.0000
  S   S64       1.0  0.52959  0.87330  0.83352  1.0000
  H   H269      1.0  0.91775  0.91057  0.54009  1.0000
  C   C231      1.0  0.83730  0.93333  0.57884  1.0000
  C   C232      1.0  0.89997  0.98582  0.57666  1.0000
  H   H270      1.0  0.81267  0.00892  0.54501  1.0000
  H   H271      1.0  0.60366  0.84416  0.78029  1.0000
  H   H272      1.0  0.78209  0.74358  0.55984  1.0000
  C   C233      1.0  0.55124  0.86510  0.67490  1.0000
  C   C234      1.0  0.71480  0.72348  0.78760  1.0000
  Fe  Fe32      1.0  0.60861  0.69794  0.67427  1.0000
  C   C235      1.0  0.82420  0.78311  0.51858  1.0000
  N   N16       1.0  0.86694  0.96080  0.55153  1.0000
  H   H273      1.0  0.73829  0.73849  0.81053  1.0000
  H   H274      1.0  0.81062  0.91552  0.56084  1.0000
  H   H275      1.0  0.56864  0.80594  0.64609  1.0000
  H   H276      1.0  0.85398  0.76141  0.51876  1.0000
  H   H277      1.0  0.73703  0.70816  0.76344  1.0000
  C   C236      1.0  0.74725  0.83879  0.51880  1.0000
  C   C237      1.0  0.96426  0.98779  0.62761  1.0000
  H   H278      1.0  0.69514  0.74956  0.77124  1.0000
  H   H279      1.0  0.63343  0.74423  0.81957  1.0000
  C   C238      1.0  0.54111  0.82489  0.66042  1.0000
  H   H280      1.0  0.80943  0.96769  0.50786  1.0000
  H   H281      1.0  0.63688  0.01844  0.92501  1.0000
  H   H282      1.0  0.52680  0.91967  0.70552  1.0000
  C   C239      1.0  0.00496  0.01209  0.50777  1.0000
  H   H283      1.0  0.67079  0.72937  0.86257  1.0000
  C   C240      1.0  0.51616  0.88919  0.69437  1.0000
  H   H284      1.0  0.63475  0.69872  0.75614  1.0000
  H   H285      1.0  0.62118  0.69736  0.84854  1.0000
  H   H286      1.0  0.85424  0.00679  0.50223  1.0000
  H   H287      1.0  0.91722  0.95314  0.50236  1.0000
  H   H288      1.0  0.99256  0.70132  0.97729  1.0000
