data_image0
_chemical_formula_structural       HSC3H2CSC4SFeS2HCH2C3NH5CHFeHFeCH4CFeCHCSC2H2CHSH2C2H3SFeSH4SHC4HCHFeCHCHFeCH2CH2NC5H5CSHFeHSCHSC2H2FeSCHCHNCH2CSHCHCHCH2CH2C3HCFeC2HCH4SHFeH2CFeSCSH2C3HCHC2HC4HNH2SCH2C2FeSCHSHC2HCH4SCFeC5H2C3H3NSHC2H2CH2C5SH4SHC2H5C2HC4S2NHC2H2CH5C3HSC2FeCH2CH3C2FeHCH2CHCHCH2NHC2HNH2C2S2H2C3H2SCHCH6CH2SHFeCHFeCH2C2H2CHFeS2HSH4C2H3CH2SH2CHC2NC2HCH3CH2C2H4FeC2SNCSC3H2FeS2CHSCH2SH3CHC2H2CH3CSCFeC4H2CSHNH2CHNHCFeC2HSC2H2FeSHC2SCH3SFeHCFeH2C2H3C3HCHCFeH5C2HCHCH4SH4SC2H2CHFeSHNCFeS2CHCHC2SHSHC2HC3H4C2HC2H2CHSC2HSH4SCH3C2SNCHCH3CFe2S2HNC5HC2HC3H3CHFeC2NHCSHSH2C3H4C2SH6C2H4C5H3C2HC3H3CH
_chemical_formula_sum              "H288 S64 C240 Fe32 N16"
_cell_length_a       33.7796
_cell_length_b       36.2308
_cell_length_c       24.1447
_cell_angle_alpha    89.2678
_cell_angle_beta     89.934
_cell_angle_gamma    90.4243

_space_group_name_H-M_alt    "P 1"
_space_group_IT_number       1

loop_
  _space_group_symop_operation_xyz
  'x, y, z'

loop_
  _atom_site_type_symbol
  _atom_site_label
  _atom_site_symmetry_multiplicity
  _atom_site_fract_x
  _atom_site_fract_y
  _atom_site_fract_z
  _atom_site_occupancy
  H   H1        1.0  0.37276  0.26755  0.20620  1.0000
  S   S1        1.0  0.42588  0.26830  0.39525  1.0000
  C   C1        1.0  0.18197  0.24974  0.18243  1.0000
  C   C2        1.0  0.18340  0.17294  0.17597  1.0000
  C   C3        1.0  0.11412  0.14137  0.23929  1.0000
  H   H2        1.0  0.13809  0.12109  0.23242  1.0000
  H   H3        1.0  0.18158  0.27966  0.18334  1.0000
  C   C4        1.0  0.46745  0.27782  0.29639  1.0000
  S   S2        1.0  0.06007  0.06899  0.07149  1.0000
  C   C5        1.0  0.14683  0.22946  0.18917  1.0000
  C   C6        1.0  0.21757  0.23182  0.17273  1.0000
  C   C7        1.0  0.39916  0.27094  0.23099  1.0000
  C   C8        1.0  0.39654  0.27003  0.28924  1.0000
  S   S3        1.0  0.00839  0.09957  0.19480  1.0000
  Fe  Fe1       1.0  0.39264  0.28805  0.07208  1.0000
  S   S4        1.0  0.44115  0.27049  0.13220  1.0000
  S   S5        1.0  0.34118  0.32002  0.10418  1.0000
  H   H4        1.0  0.36797  0.26621  0.30889  1.0000
  C   C9        1.0  0.43609  0.27426  0.20509  1.0000
  H   H5        1.0  0.24589  0.17981  0.16015  1.0000
  H   H6        1.0  0.18540  0.14335  0.17197  1.0000
  C   C10       1.0  0.10327  0.14655  0.14094  1.0000
  C   C11       1.0  0.14654  0.19025  0.18612  1.0000
  C   C12       1.0  0.43066  0.27288  0.32227  1.0000
  N   N1        1.0  0.10997  0.16774  0.19218  1.0000
  H   H7        1.0  0.24449  0.24779  0.16602  1.0000
  H   H8        1.0  0.42730  0.17887  0.37071  1.0000
  H   H9        1.0  0.12032  0.24521  0.19587  1.0000
  H   H10       1.0  0.10055  0.16524  0.10438  1.0000
  H   H11       1.0  0.12075  0.15613  0.27840  1.0000
  C   C13       1.0  0.45067  0.18056  0.33989  1.0000
  H   H12       1.0  0.12749  0.12693  0.13185  1.0000
  Fe  Fe2       1.0  0.00804  0.10231  0.10004  1.0000
  H   H13       1.0  0.06777  0.20916  0.16700  1.0000
  Fe  Fe3       1.0  0.30572  0.29151  0.03775  1.0000
  C   C14       1.0  0.21828  0.19351  0.16936  1.0000
  H   H14       1.0  0.07569  0.12985  0.14366  1.0000
  H   H15       1.0  0.08646  0.12484  0.24598  1.0000
  H   H16       1.0  0.07614  0.20577  0.24122  1.0000
  H   H17       1.0  0.04692  0.17199  0.20655  1.0000
  C   C15       1.0  0.07382  0.18987  0.20221  1.0000
  Fe  Fe4       1.0  0.47492  0.27797  0.45815  1.0000
  C   C16       1.0  0.44090  0.18242  0.28393  1.0000
  H   H18       1.0  0.00944  0.09646  0.31313  1.0000
  C   C17       1.0  0.17090  0.23733  0.03732  1.0000
  S   S6        1.0  0.02234  0.15067  0.04283  1.0000
  C   C18       1.0  0.47014  0.27824  0.23807  1.0000
  C   C19       1.0  0.47059  0.18711  0.24440  1.0000
  H   H19       1.0  0.41012  0.18186  0.27134  1.0000
  H   H20       1.0  0.01096  0.01671  0.20531  1.0000
  C   C20       1.0  0.23083  0.20267  0.02352  1.0000
  H   H21       1.0  0.11584  0.20705  0.02895  1.0000
  S   S7        1.0  0.23992  0.27738  0.04765  1.0000
  H   H22       1.0  0.26275  0.20118  0.02259  1.0000
  H   H23       1.0  0.46265  0.19044  0.20106  1.0000
  C   C21       1.0  0.21251  0.23623  0.03490  1.0000
  C   C22       1.0  0.14778  0.20542  0.02815  1.0000
  H   H24       1.0  0.15644  0.26314  0.04621  1.0000
  H   H25       1.0  0.23747  0.29108  0.86080  1.0000
  H   H26       1.0  0.41527  0.28963  0.66379  1.0000
  S   S8        1.0  0.03729  0.08904  0.94467  1.0000
  Fe  Fe5       1.0  0.37082  0.30303  0.94981  1.0000
  S   S9        1.0  0.37098  0.30589  0.85522  1.0000
  H   H27       1.0  0.20680  0.12573  0.82949  1.0000
  H   H28       1.0  0.25406  0.27449  0.92796  1.0000
  H   H29       1.0  0.14391  0.14570  0.87175  1.0000
  H   H30       1.0  0.44499  0.26398  0.86223  1.0000
  S   S10       1.0  0.45938  0.31044  0.53418  1.0000
  H   H31       1.0  0.37014  0.31188  0.73730  1.0000
  C   C23       1.0  0.16855  0.16493  0.86777  1.0000
  C   C24       1.0  0.43852  0.26985  0.81914  1.0000
  C   C25       1.0  0.40456  0.28959  0.80494  1.0000
  C   C26       1.0  0.39650  0.29680  0.74872  1.0000
  H   H32       1.0  0.26333  0.16803  0.82296  1.0000
  C   C27       1.0  0.20411  0.15370  0.84442  1.0000
  H   H33       1.0  0.31199  0.19613  0.87304  1.0000
  Fe  Fe6       1.0  0.07285  0.11598  0.01243  1.0000
  C   C28       1.0  0.45621  0.26480  0.72104  1.0000
  H   H34       1.0  0.19263  0.25180  0.90375  1.0000
  C   C29       1.0  0.16498  0.20065  0.88760  1.0000
  H   H35       1.0  0.29350  0.21720  0.93467  1.0000
  Fe  Fe7       1.0  0.01955  0.04580  0.00755  1.0000
  C   C30       1.0  0.42212  0.28443  0.70694  1.0000
  H   H36       1.0  0.32867  0.24102  0.89093  1.0000
  H   H37       1.0  0.13744  0.20892  0.90678  1.0000
  C   C31       1.0  0.23633  0.17810  0.84118  1.0000
  H   H38       1.0  0.29145  0.21905  0.78154  1.0000
  H   H39       1.0  0.28827  0.29456  0.87984  1.0000
  N   N2        1.0  0.26894  0.23941  0.85942  1.0000
  C   C32       1.0  0.28148  0.24502  0.80095  1.0000
  C   C33       1.0  0.26162  0.27641  0.88305  1.0000
  C   C34       1.0  0.30212  0.22263  0.89081  1.0000
  C   C35       1.0  0.23398  0.21452  0.86201  1.0000
  C   C36       1.0  0.19717  0.22512  0.88546  1.0000
  H   H40       1.0  0.25685  0.25633  0.77545  1.0000
  H   H41       1.0  0.30698  0.26468  0.79749  1.0000
  H   H42       1.0  0.00285  0.15067  0.84302  1.0000
  H   H43       1.0  0.00999  0.03109  0.86902  1.0000
  H   H44       1.0  0.00500  0.15537  0.74029  1.0000
  C   C37       1.0  0.46409  0.25735  0.77728  1.0000
  S   S11       1.0  0.13855  0.13090  0.00252  1.0000
  H   H45       1.0  0.98563  0.06579  0.82888  1.0000
  Fe  Fe8       1.0  0.98581  0.12008  0.97855  1.0000
  H   H46       1.0  0.00752  0.02617  0.79567  1.0000
  S   S12       1.0  0.35614  0.25605  0.00933  1.0000
  C   C38       1.0  0.16606  0.17184  0.01665  1.0000
  H   H47       1.0  0.22215  0.14497  0.00514  1.0000
  S   S13       1.0  0.41196  0.33119  0.00921  1.0000
  C   C39       1.0  0.99049  0.03547  0.83234  1.0000
  C   C40       1.0  0.20770  0.17074  0.01428  1.0000
  H   H48       1.0  0.47642  0.33314  0.65187  1.0000
  H   H49       1.0  0.38816  0.44170  0.16515  1.0000
  Fe  Fe9       1.0  0.39020  0.62752  0.48271  1.0000
  S   S14       1.0  0.33774  0.59435  0.45603  1.0000
  C   C41       1.0  0.41094  0.43809  0.19798  1.0000
  H   H50       1.0  0.43858  0.53658  0.06178  1.0000
  C   C42       1.0  0.40460  0.46580  0.50313  1.0000
  H   H51       1.0  0.37857  0.49856  0.07859  1.0000
  N   N3        1.0  0.41899  0.39848  0.20987  1.0000
  C   C43       1.0  0.42463  0.63627  0.23246  1.0000
  H   H52       1.0  0.46792  0.39736  0.15192  1.0000
  H   H53       1.0  0.16067  0.64366  0.48690  1.0000
  C   C44       1.0  0.43993  0.38241  0.16197  1.0000
  S   S15       1.0  0.41876  0.63288  0.15994  1.0000
  H   H54       1.0  0.40257  0.51478  0.37384  1.0000
  C   C45       1.0  0.45841  0.36898  0.35212  1.0000
  H   H55       1.0  0.44578  0.38253  0.47427  1.0000
  C   C46       1.0  0.39286  0.62584  0.26701  1.0000
  H   H56       1.0  0.41309  0.56396  0.37650  1.0000
  C   C47       1.0  0.40479  0.48599  0.06153  1.0000
  H   H57       1.0  0.44750  0.35292  0.17008  1.0000
  H   H58       1.0  0.30029  0.63633  0.35892  1.0000
  C   C48       1.0  0.48016  0.41519  0.26372  1.0000
  H   H59       1.0  0.45036  0.35033  0.38594  1.0000
  H   H60       1.0  0.39980  0.45223  0.23550  1.0000
  C   C49       1.0  0.44412  0.39493  0.25984  1.0000
  C   C50       1.0  0.39524  0.63018  0.32471  1.0000
  C   C51       1.0  0.44322  0.41000  0.49062  1.0000
  H   H61       1.0  0.38360  0.34883  0.21912  1.0000
  C   C52       1.0  0.43843  0.43250  0.02662  1.0000
  Fe  Fe10      1.0  0.35905  0.36169  0.03909  1.0000
  C   C53       1.0  0.38009  0.37930  0.21534  1.0000
  C   C54       1.0  0.47276  0.49183  0.02916  1.0000
  H   H62       1.0  0.36117  0.38398  0.17810  1.0000
  C   C55       1.0  0.40417  0.44851  0.04785  1.0000
  H   H63       1.0  0.38396  0.41781  0.45961  1.0000
  H   H64       1.0  0.40663  0.54546  0.28694  1.0000
  H   H65       1.0  0.43747  0.45335  0.18250  1.0000
  H   H66       1.0  0.36317  0.38935  0.25166  1.0000
  S   S16       1.0  0.24151  0.63104  0.51633  1.0000
  H   H67       1.0  0.40827  0.35364  0.30555  1.0000
  Fe  Fe11      1.0  0.46897  0.63507  0.09712  1.0000
  H   H68       1.0  0.36602  0.61494  0.24887  1.0000
  H   H69       1.0  0.37039  0.62257  0.35057  1.0000
  C   C56       1.0  0.43426  0.37119  0.30523  1.0000
  Fe  Fe12      1.0  0.36027  0.55090  0.51453  1.0000
  S   S17       1.0  0.36145  0.49118  0.48877  1.0000
  C   C57       1.0  0.40821  0.43001  0.48242  1.0000
  S   S18       1.0  0.36019  0.42270  0.05828  1.0000
  H   H70       1.0  0.42138  0.38322  0.12387  1.0000
  H   H71       1.0  0.42254  0.53500  0.43459  1.0000
  C   C58       1.0  0.44016  0.53978  0.21363  1.0000
  C   C59       1.0  0.43886  0.50763  0.05197  1.0000
  C   C60       1.0  0.42908  0.64581  0.34836  1.0000
  H   H72       1.0  0.41562  0.54806  0.18733  1.0000
  C   C61       1.0  0.43552  0.53844  0.27124  1.0000
  H   H73       1.0  0.26046  0.64887  0.40400  1.0000
  C   C62       1.0  0.42388  0.53610  0.38854  1.0000
  C   C63       1.0  0.46107  0.65583  0.31391  1.0000
  H   H74       1.0  0.25571  0.65624  0.33178  1.0000
  C   C64       1.0  0.45907  0.65071  0.25620  1.0000
  C   C65       1.0  0.27732  0.65754  0.36627  1.0000
  C   C66       1.0  0.47671  0.53229  0.18972  1.0000
  C   C67       1.0  0.46783  0.52973  0.30669  1.0000
  H   H75       1.0  0.48046  0.53429  0.14520  1.0000
  N   N4        1.0  0.46464  0.52956  0.36788  1.0000
  H   H76       1.0  0.47559  0.49265  0.43658  1.0000
  H   H77       1.0  0.45837  0.47047  0.37525  1.0000
  S   S19       1.0  0.43180  0.65466  0.42024  1.0000
  C   C68       1.0  0.47744  0.49335  0.39071  1.0000
  H   H78       1.0  0.48270  0.58650  0.37263  1.0000
  H   H79       1.0  0.47619  0.60893  0.86556  1.0000
  C   C69       1.0  0.42376  0.61971  0.74519  1.0000
  C   C70       1.0  0.36096  0.51787  0.92147  1.0000
  Fe  Fe13      1.0  0.37924  0.60564  0.60583  1.0000
  S   S20       1.0  0.32504  0.57166  0.58601  1.0000
  C   C71       1.0  0.38489  0.41046  0.85908  1.0000
  H   H80       1.0  0.37227  0.55833  0.82674  1.0000
  S   S21       1.0  0.40645  0.59207  0.69020  1.0000
  H   H81       1.0  0.43358  0.36015  0.66557  1.0000
  C   C72       1.0  0.44870  0.65945  0.83917  1.0000
  C   C73       1.0  0.13274  0.61367  0.62466  1.0000
  H   H82       1.0  0.46922  0.37501  0.61378  1.0000
  C   C74       1.0  0.46568  0.36202  0.65550  1.0000
  H   H83       1.0  0.43753  0.53047  0.93980  1.0000
  H   H84       1.0  0.48173  0.41491  0.89518  1.0000
  H   H85       1.0  0.42957  0.36932  0.87153  1.0000
  H   H86       1.0  0.45046  0.36328  0.76443  1.0000
  S   S22       1.0  0.31877  0.33689  0.97624  1.0000
  C   C75       1.0  0.43595  0.48114  0.53307  1.0000
  Fe  Fe14      1.0  0.30718  0.61882  0.52979  1.0000
  C   C76       1.0  0.41442  0.65709  0.74990  1.0000
  C   C77       1.0  0.10417  0.64077  0.63310  1.0000
  C   C78       1.0  0.47571  0.42161  0.70304  1.0000
  C   C79       1.0  0.45872  0.62235  0.83376  1.0000
  C   C80       1.0  0.40447  0.47490  0.87570  1.0000
  H   H87       1.0  0.36218  0.39023  0.84919  1.0000
  H   H88       1.0  0.33315  0.50399  0.90838  1.0000
  C   C81       1.0  0.17281  0.62242  0.62885  1.0000
  C   C82       1.0  0.42637  0.53857  0.89812  1.0000
  C   C83       1.0  0.45225  0.42429  0.88462  1.0000
  H   H89       1.0  0.19504  0.60168  0.62082  1.0000
  H   H90       1.0  0.41129  0.48607  0.64988  1.0000
  H   H91       1.0  0.40194  0.52458  0.79306  1.0000
  N   N5        1.0  0.39329  0.51425  0.88023  1.0000
  S   S23       1.0  0.41501  0.58238  0.53600  1.0000
  H   H92       1.0  0.46724  0.48009  0.89895  1.0000
  C   C84       1.0  0.42298  0.39860  0.87144  1.0000
  C   C85       1.0  0.43478  0.47452  0.67530  1.0000
  H   H93       1.0  0.45459  0.57412  0.78292  1.0000
  H   H94       1.0  0.35181  0.51400  0.81172  1.0000
  C   C86       1.0  0.37916  0.52827  0.82576  1.0000
  H   H95       1.0  0.34556  0.45576  0.85162  1.0000
  H   H96       1.0  0.36958  0.50534  0.96201  1.0000
  C   C87       1.0  0.47123  0.46141  0.54039  1.0000
  C   C88       1.0  0.44337  0.46193  0.88675  1.0000
  C   C89       1.0  0.44638  0.60268  0.78696  1.0000
  C   C90       1.0  0.44432  0.43715  0.67133  1.0000
  C   C91       1.0  0.37569  0.44801  0.86085  1.0000
  S   S24       1.0  0.45259  0.60786  0.01694  1.0000
  H   H97       1.0  0.41702  0.56792  0.90128  1.0000
  H   H98       1.0  0.42725  0.42136  0.64200  1.0000
  H   H99       1.0  0.45152  0.53813  0.86843  1.0000
  H   H100      1.0  0.35344  0.54730  0.92880  1.0000
  S   S25       1.0  0.35903  0.65492  0.55434  1.0000
  H   H101      1.0  0.12388  0.58583  0.61404  1.0000
  C   C92       1.0  0.45609  0.49744  0.71035  1.0000
  C   C93       1.0  0.18447  0.65825  0.64156  1.0000
  H   H102      1.0  0.43850  0.40375  0.01601  1.0000
  H   H103      1.0  0.07347  0.63266  0.62916  1.0000
  H   H104      1.0  0.44949  0.52662  0.71140  1.0000
  H   H105      1.0  0.43323  0.50824  0.55042  1.0000
  H   H106      1.0  0.21579  0.66504  0.64317  1.0000
  C   C94       1.0  0.47504  0.42593  0.51877  1.0000
  C   C95       1.0  0.48219  0.36305  0.75183  1.0000
  H   H107      1.0  0.04106  0.66867  0.69152  1.0000
  C   C96       1.0  0.47267  0.45403  0.01771  1.0000
  C   C97       1.0  0.99999  0.84827  0.19829  1.0000
  C   C98       1.0  0.38497  0.72181  0.28252  1.0000
  C   C99       1.0  0.01612  0.97498  0.14324  1.0000
  S   S26       1.0  0.04852  0.83609  0.45022  1.0000
  S   S27       1.0  0.13587  0.77666  0.51397  1.0000
  N   N6        1.0  0.29551  0.69476  0.37229  1.0000
  H   H108      1.0  0.24360  0.71675  0.41183  1.0000
  C   C100      1.0  0.32112  0.70351  0.32390  1.0000
  C   C101      1.0  0.98958  0.96375  0.23465  1.0000
  H   H109      1.0  0.41590  0.72930  0.28755  1.0000
  H   H110      1.0  0.29790  0.68602  0.46103  1.0000
  C   C102      1.0  0.36977  0.71677  0.22957  1.0000
  H   H111      1.0  0.24440  0.72249  0.33821  1.0000
  H   H112      1.0  0.31876  0.70233  0.18151  1.0000
  H   H113      1.0  0.27580  0.75076  0.38028  1.0000
  H   H114      1.0  0.27572  0.69234  0.26182  1.0000
  H   H115      1.0  0.99474  0.83231  0.09320  1.0000
  C   C103      1.0  0.31723  0.69482  0.42579  1.0000
  C   C104      1.0  0.21317  0.67216  0.51455  1.0000
  C   C105      1.0  0.26347  0.72237  0.37571  1.0000
  H   H116      1.0  0.03242  0.85255  0.20360  1.0000
  S   S28       1.0  0.01795  0.75152  0.48149  1.0000
  C   C106      1.0  0.99296  0.91258  0.16884  1.0000
  C   C107      1.0  0.16465  0.73579  0.51346  1.0000
  Fe  Fe15      1.0  0.99454  0.80102  0.43360  1.0000
  C   C108      1.0  0.30613  0.70022  0.26922  1.0000
  H   H117      1.0  0.38885  0.72020  0.19366  1.0000
  H   H118      1.0  0.32859  0.72280  0.43610  1.0000
  C   C109      1.0  0.00047  0.86212  0.10113  1.0000
  H   H119      1.0  0.98967  0.74312  0.31291  1.0000
  H   H120      1.0  0.03311  0.86642  0.09949  1.0000
  H   H121      1.0  0.00640  0.94361  0.43185  1.0000
  C   C110      1.0  0.36118  0.71544  0.32918  1.0000
  C   C111      1.0  0.17317  0.67003  0.49852  1.0000
  Fe  Fe16      1.0  0.06979  0.78846  0.50344  1.0000
  H   H122      1.0  0.37545  0.71881  0.36883  1.0000
  C   C112      1.0  0.14900  0.70162  0.49795  1.0000
  H   H123      1.0  0.11841  0.69950  0.48517  1.0000
  H   H124      1.0  0.01799  0.93016  0.08843  1.0000
  C   C113      1.0  0.33033  0.70634  0.22289  1.0000
  H   H125      1.0  0.34264  0.67542  0.42509  1.0000
  C   C114      1.0  0.00985  0.93795  0.12991  1.0000
  H   H126      1.0  0.99489  0.81873  0.18772  1.0000
  C   C115      1.0  0.00610  0.98789  0.19546  1.0000
  H   H127      1.0  0.98663  0.87733  0.06595  1.0000
  H   H128      1.0  0.02850  0.99386  0.11244  1.0000
  N   N7        1.0  0.98386  0.87367  0.15520  1.0000
  H   H129      1.0  0.98588  0.85168  0.23946  1.0000
  C   C116      1.0  0.98922  0.90247  0.71273  1.0000
  C   C117      1.0  0.01863  0.89488  0.80352  1.0000
  H   H130      1.0  0.04744  0.92206  0.73457  1.0000
  N   N8        1.0  0.08406  0.70592  0.65378  1.0000
  H   H131      1.0  0.11816  0.74264  0.70525  1.0000
  H   H132      1.0  0.01024  0.80055  0.78591  1.0000
  C   C118      1.0  0.15620  0.68573  0.64928  1.0000
  C   C119      1.0  0.42700  0.67692  0.79674  1.0000
  S   S29       1.0  0.04148  0.81106  0.58026  1.0000
  S   S30       1.0  0.46340  0.68452  0.89819  1.0000
  H   H133      1.0  0.07854  0.71845  0.56691  1.0000
  H   H134      1.0  0.07633  0.76354  0.67295  1.0000
  C   C120      1.0  0.05778  0.69446  0.70033  1.0000
  C   C121      1.0  0.05987  0.70968  0.60285  1.0000
  C   C122      1.0  0.02087  0.90795  0.74907  1.0000
  H   H135      1.0  0.03496  0.71567  0.70904  1.0000
  H   H136      1.0  0.03617  0.73052  0.60784  1.0000
  S   S31       1.0  0.01491  0.91468  0.55162  1.0000
  C   C123      1.0  0.20473  0.73795  0.52916  1.0000
  H   H137      1.0  0.00842  0.78645  0.68598  1.0000
  C   C124      1.0  0.22887  0.70635  0.52992  1.0000
  H   H138      1.0  0.04337  0.89870  0.83149  1.0000
  H   H139      1.0  0.21709  0.76427  0.54134  1.0000
  H   H140      1.0  0.11884  0.75422  0.63185  1.0000
  H   H141      1.0  0.99704  0.98979  0.57672  1.0000
  H   H142      1.0  0.16754  0.71313  0.65689  1.0000
  H   H143      1.0  0.99245  0.91320  0.67091  1.0000
  C   C125      1.0  0.10027  0.74309  0.66659  1.0000
  H   H144      1.0  0.41934  0.70572  0.80051  1.0000
  H   H145      1.0  0.07504  0.68985  0.73902  1.0000
  S   S32       1.0  0.01692  0.98559  0.98355  1.0000
  H   H146      1.0  0.25935  0.70839  0.54325  1.0000
  Fe  Fe17      1.0  0.98899  0.77691  0.55630  1.0000
  C   C126      1.0  0.11499  0.67772  0.64549  1.0000
  H   H147      1.0  0.04448  0.68365  0.59160  1.0000
  Fe  Fe18      1.0  0.01566  0.85492  0.52524  1.0000
  C   C127      1.0  0.98458  0.87660  0.82191  1.0000
  H   H148      1.0  0.98560  0.97123  0.87793  1.0000
  H   H149      1.0  0.99117  0.91418  0.94763  1.0000
  C   C128      1.0  0.98546  0.78523  0.76921  1.0000
  C   C129      1.0  0.98454  0.77721  0.71249  1.0000
  H   H150      1.0  0.39703  0.67053  0.71802  1.0000
  H   H151      1.0  0.88438  0.05351  0.30546  1.0000
  C   C130      1.0  0.72111  0.19345  0.49564  1.0000
  H   H152      1.0  0.60315  0.17890  0.40215  1.0000
  Fe  Fe19      1.0  0.87687  0.13352  0.46776  1.0000
  S   S33       1.0  0.88350  0.14986  0.37665  1.0000
  S   S34       1.0  0.82104  0.10088  0.48445  1.0000
  H   H153      1.0  0.74740  0.18482  0.47384  1.0000
  S   S35       1.0  0.52924  0.31112  0.43760  1.0000
  H   H154      1.0  0.69477  0.21920  0.42361  1.0000
  H   H155      1.0  0.55710  0.19628  0.42289  1.0000
  H   H156      1.0  0.88159  0.15168  0.25804  1.0000
  H   H157      1.0  0.49883  0.28077  0.21842  1.0000
  C   C131      1.0  0.69117  0.21293  0.46725  1.0000
  C   C132      1.0  0.91814  0.13469  0.32677  1.0000
  H   H158      1.0  0.96190  0.11640  0.38534  1.0000
  H   H159      1.0  0.62092  0.16972  0.31250  1.0000
  H   H160      1.0  0.83787  0.03160  0.38405  1.0000
  C   C133      1.0  0.95434  0.11911  0.34196  1.0000
  H   H161      1.0  0.56967  0.24226  0.28760  1.0000
  H   H162      1.0  0.57963  0.14066  0.29427  1.0000
  S   S36       1.0  0.62001  0.24883  0.45707  1.0000
  H   H163      1.0  0.89020  0.00736  0.28051  1.0000
  H   H164      1.0  0.89208  0.06747  0.40353  1.0000
  C   C134      1.0  0.97263  0.11293  0.24430  1.0000
  H   H165      1.0  0.53166  0.19553  0.22851  1.0000
  C   C135      1.0  0.58980  0.16988  0.29715  1.0000
  C   C136      1.0  0.57446  0.23075  0.32997  1.0000
  N   N9        1.0  0.56336  0.19119  0.33401  1.0000
  C   C137      1.0  0.91101  0.04244  0.40681  1.0000
  C   C138      1.0  0.57100  0.17815  0.39167  1.0000
  H   H166      1.0  0.59167  0.18181  0.25464  1.0000
  C   C139      1.0  0.52137  0.18704  0.31734  1.0000
  H   H167      1.0  0.92934  0.13231  0.18568  1.0000
  H   H168      1.0  0.93278  0.03391  0.30076  1.0000
  H   H169      1.0  0.55653  0.24751  0.35900  1.0000
  C   C140      1.0  0.93641  0.12840  0.22905  1.0000
  H   H170      1.0  0.90985  0.03265  0.45064  1.0000
  H   H171      1.0  0.49540  0.18279  0.40075  1.0000
  C   C141      1.0  0.90939  0.13932  0.27016  1.0000
  C   C142      1.0  0.85523  0.00562  0.38132  1.0000
  H   H172      1.0  0.94154  0.05212  0.39720  1.0000
  H   H173      1.0  0.49388  0.28019  0.32128  1.0000
  H   H174      1.0  0.56026  0.14935  0.39847  1.0000
  H   H175      1.0  0.60614  0.23537  0.34095  1.0000
  Fe  Fe20      1.0  0.56189  0.27029  0.49188  1.0000
  C   C143      1.0  0.65684  0.22452  0.49494  1.0000
  C   C144      1.0  0.51020  0.18985  0.26070  1.0000
  S   S37       1.0  0.50800  0.23462  0.50731  1.0000
  N   N10       1.0  0.89771  0.01297  0.36886  1.0000
  C   C145      1.0  0.90135  0.02743  0.31137  1.0000
  S   S38       1.0  0.96672  0.07557  0.03931  1.0000
  C   C146      1.0  0.49020  0.18302  0.35665  1.0000
  C   C147      1.0  0.98135  0.10817  0.30090  1.0000
  C   C148      1.0  0.94109  0.13589  0.84627  1.0000
  H   H176      1.0  0.87953  0.12178  0.83499  1.0000
  H   H177      1.0  0.88233  0.12427  0.73220  1.0000
  Fe  Fe21      1.0  0.89877  0.13342  0.59216  1.0000
  S   S39       1.0  0.94588  0.14813  0.65602  1.0000
  S   S40       1.0  0.84471  0.10080  0.61550  1.0000
  C   C149      1.0  0.90859  0.13018  0.75602  1.0000
  H   H178      1.0  0.62639  0.22497  0.57325  1.0000
  S   S41       1.0  0.75389  0.16127  0.59023  1.0000
  C   C150      1.0  0.90721  0.12834  0.81439  1.0000
  H   H179      1.0  0.76950  0.19847  0.73029  1.0000
  H   H180      1.0  0.49026  0.24191  0.78852  1.0000
  S   S42       1.0  0.93690  0.13814  0.91948  1.0000
  H   H181      1.0  0.87285  0.25101  0.66250  1.0000
  H   H182      1.0  0.83599  0.27959  0.69410  1.0000
  H   H183      1.0  0.92342  0.05803  0.88343  1.0000
  C   C151      1.0  0.94361  0.14074  0.72892  1.0000
  H   H184      1.0  0.96281  0.05713  0.73981  1.0000
  C   C152      1.0  0.68262  0.19688  0.57983  1.0000
  C   C153      1.0  0.71697  0.18533  0.55216  1.0000
  H   H185      1.0  0.79207  0.21816  0.81375  1.0000
  H   H186      1.0  0.67904  0.19065  0.62348  1.0000
  C   C154      1.0  0.88445  0.21883  0.86667  1.0000
  H   H187      1.0  0.95238  0.02742  0.92568  1.0000
  H   H188      1.0  0.77254  0.24859  0.73052  1.0000
  H   H189      1.0  0.89934  0.21642  0.90634  1.0000
  C   C155      1.0  0.88771  0.22256  0.76668  1.0000
  S   S43       1.0  0.48979  0.24919  0.67016  1.0000
  C   C156      1.0  0.93253  0.02870  0.88889  1.0000
  Fe  Fe22      1.0  0.49764  0.27077  0.58164  1.0000
  C   C157      1.0  0.97662  0.14449  0.81908  1.0000
  C   C158      1.0  0.97771  0.14728  0.76079  1.0000
  C   C159      1.0  0.84326  0.21801  0.86403  1.0000
  C   C160      1.0  0.84577  0.22178  0.76236  1.0000
  H   H190      1.0  0.82527  0.25427  0.63203  1.0000
  H   H191      1.0  0.82627  0.21544  0.90203  1.0000
  C   C161      1.0  0.84085  0.25296  0.67272  1.0000
  S   S44       1.0  0.55374  0.30364  0.56860  1.0000
  H   H192      1.0  0.82662  0.16211  0.70345  1.0000
  N   N11       1.0  0.82661  0.22133  0.70724  1.0000
  H   H193      1.0  0.76940  0.22365  0.66701  1.0000
  H   H194      1.0  0.93487  0.02566  0.57257  1.0000
  C   C162      1.0  0.93606  0.04065  0.74239  1.0000
  H   H195      1.0  0.86952  0.18391  0.67292  1.0000
  N   N12       1.0  0.95244  0.01498  0.83841  1.0000
  H   H196      1.0  0.82327  0.18519  0.63772  1.0000
  C   C163      1.0  0.83708  0.18666  0.67926  1.0000
  Fe  Fe23      1.0  0.81192  0.13848  0.55644  1.0000
  C   C164      1.0  0.82398  0.21951  0.81277  1.0000
  C   C165      1.0  0.78266  0.22325  0.70936  1.0000
  H   H197      1.0  0.90638  0.22259  0.73024  1.0000
  S   S45       1.0  0.91554  0.09723  0.52062  1.0000
  C   C166      1.0  0.90659  0.22139  0.81812  1.0000
  C   C167      1.0  0.65266  0.21633  0.55142  1.0000
  H   H198      1.0  0.93866  0.22083  0.82032  1.0000
  H   H199      1.0  0.91955  0.05888  0.66043  1.0000
  Fe  Fe24      1.0  0.85922  0.06704  0.54123  1.0000
  S   S46       1.0  0.86564  0.17359  0.53705  1.0000
  H   H200      1.0  0.90568  0.01237  0.90013  1.0000
  C   C168      1.0  0.91126  0.04199  0.69611  1.0000
  C   C169      1.0  0.92589  0.01908  0.79002  1.0000
  S   S47       1.0  0.85498  0.00490  0.53959  1.0000
  C   C170      1.0  0.87572  0.02224  0.69586  1.0000
  H   H201      1.0  0.85670  0.02325  0.65969  1.0000
  H   H202      1.0  0.49130  0.33361  0.74941  1.0000
  H   H203      1.0  0.53082  0.51650  0.30501  1.0000
  S   S48       1.0  0.52649  0.60516  0.10730  1.0000
  Fe  Fe25      1.0  0.55411  0.65169  0.05665  1.0000
  H   H204      1.0  0.66004  0.62099  0.15185  1.0000
  C   C171      1.0  0.69046  0.63076  0.15011  1.0000
  Fe  Fe26      1.0  0.51597  0.34082  0.51620  1.0000
  H   H205      1.0  0.69243  0.64490  0.23606  1.0000
  H   H206      1.0  0.50868  0.48690  0.38087  1.0000
  C   C172      1.0  0.71102  0.63042  0.10014  1.0000
  C   C173      1.0  0.76871  0.65976  0.14379  1.0000
  H   H207      1.0  0.82958  0.64908  0.06765  1.0000
  H   H208      1.0  0.69643  0.62016  0.06336  1.0000
  H   H209      1.0  0.52233  0.55430  0.38174  1.0000
  C   C174      1.0  0.74735  0.65851  0.19451  1.0000
  C   C175      1.0  0.49297  0.39003  0.35530  1.0000
  C   C176      1.0  0.74943  0.64492  0.09655  1.0000
  H   H210      1.0  0.53741  0.51841  0.20418  1.0000
  C   C177      1.0  0.50885  0.52341  0.22316  1.0000
  H   H211      1.0  0.51140  0.38829  0.39204  1.0000
  C   C178      1.0  0.50467  0.52230  0.28079  1.0000
  Fe  Fe27      1.0  0.51124  0.58029  0.02527  1.0000
  H   H212      1.0  0.83704  0.62499  0.16420  1.0000
  H   H213      1.0  0.48362  0.65902  0.22995  1.0000
  H   H214      1.0  0.76281  0.64507  0.05589  1.0000
  H   H215      1.0  0.82707  0.65460  0.22162  1.0000
  H   H216      1.0  0.53157  0.42832  0.31292  1.0000
  C   C179      1.0  0.50407  0.41279  0.31090  1.0000
  C   C180      1.0  0.70867  0.64454  0.19732  1.0000
  H   H217      1.0  0.48746  0.56112  0.43639  1.0000
  C   C181      1.0  0.83607  0.65431  0.17736  1.0000
  H   H218      1.0  0.86696  0.66550  0.17562  1.0000
  C   C182      1.0  0.49051  0.55900  0.39055  1.0000
  H   H219      1.0  0.49021  0.43278  0.22996  1.0000
  H   H220      1.0  0.48736  0.66803  0.33182  1.0000
  H   H221      1.0  0.76020  0.66887  0.23225  1.0000
  H   H222      1.0  0.49884  0.44154  0.00038  1.0000
  S   S49       1.0  0.54432  0.62365  0.97507  1.0000
  H   H223      1.0  0.50245  0.50089  0.77081  1.0000
  H   H224      1.0  0.51941  0.43555  0.76613  1.0000
  H   H225      1.0  0.55034  0.39213  0.71532  1.0000
  H   H226      1.0  0.53646  0.39710  0.64383  1.0000
  S   S50       1.0  0.52010  0.40245  0.52630  1.0000
  C   C183      1.0  0.53060  0.38105  0.68273  1.0000
  C   C184      1.0  0.49568  0.44550  0.74013  1.0000
  H   H227      1.0  0.54032  0.35216  0.67541  1.0000
  H   H228      1.0  0.64258  0.66051  0.97728  1.0000
  C   C185      1.0  0.48609  0.48290  0.74336  1.0000
  H   H229      1.0  0.49557  0.47368  0.56293  1.0000
  Fe  Fe28      1.0  0.48606  0.65330  0.97388  1.0000
  S   S51       1.0  0.51476  0.51880  0.01154  1.0000
  H   H230      1.0  0.49977  0.37544  0.78575  1.0000
  N   N13       1.0  0.48807  0.38264  0.69811  1.0000
  C   C186      1.0  0.90440  0.91763  0.01951  1.0000
  Fe  Fe29      1.0  0.89492  0.75715  0.06201  1.0000
  S   S52       1.0  0.83572  0.78485  0.06539  1.0000
  S   S53       1.0  0.92272  0.72606  0.13414  1.0000
  C   C187      1.0  0.95944  0.73514  0.23478  1.0000
  H   H231      1.0  0.96893  0.90934  0.25268  1.0000
  C   C188      1.0  0.95769  0.97720  0.40371  1.0000
  H   H232      1.0  0.88981  0.79248  0.18077  1.0000
  C   C189      1.0  0.68087  0.71986  0.07140  1.0000
  C   C190      1.0  0.92914  0.91263  0.35551  1.0000
  S   S54       1.0  0.96105  0.82235  0.50695  1.0000
  H   H233      1.0  0.67424  0.73157  0.11132  1.0000
  S   S55       1.0  0.49705  0.68377  0.05330  1.0000
  H   H234      1.0  0.80794  0.69412  0.05600  1.0000
  C   C191      1.0  0.80811  0.71459  0.16181  1.0000
  C   C192      1.0  0.93187  0.74938  0.19669  1.0000
  H   H235      1.0  0.97490  0.70990  0.22552  1.0000
  C   C193      1.0  0.94821  0.78667  0.29622  1.0000
  C   C194      1.0  0.91178  0.78178  0.20918  1.0000
  C   C195      1.0  0.91993  0.80029  0.25871  1.0000
  H   H236      1.0  0.90432  0.82543  0.26799  1.0000
  H   H237      1.0  0.73695  0.74885  0.06302  1.0000
  H   H238      1.0  0.92684  0.88903  0.12326  1.0000
  H   H239      1.0  0.94694  0.00040  0.05057  1.0000
  C   C196      1.0  0.94031  0.86884  0.15270  1.0000
  C   C197      1.0  0.90804  0.94552  0.34931  1.0000
  H   H240      1.0  0.98070  0.88655  0.39025  1.0000
  C   C198      1.0  0.71665  0.72947  0.04436  1.0000
  C   C199      1.0  0.65365  0.69516  0.04739  1.0000
  H   H241      1.0  0.91801  0.88719  0.33783  1.0000
  H   H242      1.0  0.88121  0.94463  0.32511  1.0000
  C   C200      1.0  0.96456  0.91211  0.38493  1.0000
  H   H243      1.0  0.85644  0.68970  0.08464  1.0000
  S   S56       1.0  0.86248  0.89070  0.03748  1.0000
  C   C201      1.0  0.92108  0.97866  0.37460  1.0000
  C   C202      1.0  0.96777  0.75382  0.28437  1.0000
  H   H244      1.0  0.93182  0.84083  0.13831  1.0000
  S   S57       1.0  0.95958  0.81348  0.35477  1.0000
  H   H245      1.0  0.79974  0.71624  0.20616  1.0000
  H   H246      1.0  0.83771  0.72822  0.15838  1.0000
  H   H247      1.0  0.88652  0.96337  0.06960  1.0000
  H   H248      1.0  0.92602  0.87284  0.19363  1.0000
  S   S58       1.0  0.60979  0.68286  0.08456  1.0000
  C   C203      1.0  0.97905  0.94439  0.40826  1.0000
  H   H249      1.0  0.84034  0.98895  0.34911  1.0000
  H   H250      1.0  0.78663  0.73144  0.13757  1.0000
  H   H251      1.0  0.85180  0.99084  0.42185  1.0000
  C   C204      1.0  0.90910  0.95276  0.04237  1.0000
  C   C205      1.0  0.98273  0.92675  0.22150  1.0000
  S   S59       1.0  0.92552  0.80451  0.01970  1.0000
  N   N14       1.0  0.80903  0.67609  0.14156  1.0000
  C   C206      1.0  0.82626  0.67720  0.08492  1.0000
  H   H252      1.0  0.98189  0.97379  0.27533  1.0000
  C   C207      1.0  0.94329  0.97392  0.03132  1.0000
  H   H253      1.0  0.97021  0.00072  0.42455  1.0000
  H   H254      1.0  0.93532  0.89493  0.51484  1.0000
  H   H255      1.0  0.87311  0.93035  0.51210  1.0000
  C   C208      1.0  0.97003  0.97677  0.56250  1.0000
  Fe  Fe30      1.0  0.86586  0.83038  0.01615  1.0000
  Fe  Fe31      1.0  0.90815  0.77864  0.93903  1.0000
  S   S60       1.0  0.84952  0.80724  0.93336  1.0000
  S   S61       1.0  0.95716  0.78547  0.87516  1.0000
  H   H256      1.0  0.89421  0.92892  0.70898  1.0000
  N   N15       1.0  0.92159  0.87719  0.69003  1.0000
  C   C209      1.0  0.56276  0.72342  0.95463  1.0000
  C   C210      1.0  0.93536  0.92315  0.52822  1.0000
  C   C211      1.0  0.97043  0.93969  0.54662  1.0000
  C   C212      1.0  0.64913  0.74197  0.87212  1.0000
  C   C213      1.0  0.93389  0.90405  0.98464  1.0000
  H   H257      1.0  0.88029  0.91030  0.64291  1.0000
  C   C214      1.0  0.90522  0.91342  0.67272  1.0000
  C   C215      1.0  0.95300  0.75699  0.69052  1.0000
  H   H258      1.0  0.92771  0.93118  0.65150  1.0000
  C   C216      1.0  0.92206  0.74538  0.72575  1.0000
  C   C217      1.0  0.92250  0.75420  0.78246  1.0000
  C   C218      1.0  0.95441  0.77398  0.80440  1.0000
  H   H259      1.0  0.92796  0.85548  0.80283  1.0000
  H   H260      1.0  0.89757  0.72962  0.70911  1.0000
  H   H261      1.0  0.89850  0.74524  0.80928  1.0000
  C   C219      1.0  0.61609  0.75371  0.90380  1.0000
  H   H262      1.0  0.86495  0.84954  0.68191  1.0000
  Fe  Fe32      1.0  0.82485  0.75864  0.98272  1.0000
  C   C220      1.0  0.93632  0.85805  0.64018  1.0000
  C   C221      1.0  0.93484  0.99716  0.56005  1.0000
  N   N16       1.0  0.57629  0.73655  0.89931  1.0000
  H   H263      1.0  0.72142  0.79828  0.92214  1.0000
  C   C222      1.0  0.72580  0.71419  0.99304  1.0000
  S   S62       1.0  0.77016  0.72550  0.95642  1.0000
  H   H264      1.0  0.66486  0.82100  0.97684  1.0000
  S   S63       1.0  0.95174  0.74544  0.61958  1.0000
  H   H265      1.0  0.83626  0.98703  0.74238  1.0000
  H   H266      1.0  0.89918  0.82660  0.72666  1.0000
  C   C223      1.0  0.69869  0.68936  0.96917  1.0000
  C   C224      1.0  0.88860  0.85439  0.71317  1.0000
  C   C225      1.0  0.95283  0.87079  0.78584  1.0000
  H   H267      1.0  0.54479  0.69162  0.86030  1.0000
  H   H268      1.0  0.93616  0.95876  0.86127  1.0000
  H   H269      1.0  0.55925  0.74599  0.98484  1.0000
  H   H270      1.0  0.87420  0.86794  0.74898  1.0000
  C   C226      1.0  0.95442  0.88313  0.72967  1.0000
  C   C227      1.0  0.90010  0.94337  0.52642  1.0000
  S   S64       1.0  0.88297  0.72817  0.98173  1.0000
  H   H271      1.0  0.51753  0.75181  0.87302  1.0000
  H   H272      1.0  0.59901  0.79391  0.96599  1.0000
  H   H273      1.0  0.58391  0.70335  0.97289  1.0000
  H   H274      1.0  0.53339  0.70958  0.95217  1.0000
  H   H275      1.0  0.93038  0.87720  0.96617  1.0000
  H   H276      1.0  0.94964  0.83105  0.65127  1.0000
  C   C228      1.0  0.96199  0.97534  0.84647  1.0000
  C   C229      1.0  0.57496  0.70432  0.86181  1.0000
  H   H277      1.0  0.91225  0.85262  0.60981  1.0000
  H   H278      1.0  0.58243  0.71237  0.81841  1.0000
  H   H279      1.0  0.55721  0.77543  0.83702  1.0000
  H   H280      1.0  0.95927  0.87416  0.61749  1.0000
  C   C230      1.0  0.66278  0.68000  0.99595  1.0000
  C   C231      1.0  0.62270  0.78328  0.94085  1.0000
  C   C232      1.0  0.54770  0.76416  0.87807  1.0000
  C   C233      1.0  0.69205  0.78672  0.91606  1.0000
  C   C234      1.0  0.66022  0.79924  0.94708  1.0000
  H   H281      1.0  0.54435  0.78777  0.90658  1.0000
  H   H282      1.0  0.64730  0.71961  0.84316  1.0000
  H   H283      1.0  0.71172  0.74814  0.85560  1.0000
  C   C235      1.0  0.68645  0.75839  0.87839  1.0000
  C   C236      1.0  0.97305  0.96018  0.99715  1.0000
  H   H284      1.0  0.70551  0.67732  0.92955  1.0000
  C   C237      1.0  0.89974  0.98042  0.54224  1.0000
  C   C238      1.0  0.86438  0.00166  0.74240  1.0000
  C   C239      1.0  0.96821  0.92515  0.97386  1.0000
  H   H285      1.0  0.97273  0.96312  0.80726  1.0000
  H   H286      1.0  0.59533  0.68215  0.87619  1.0000
  H   H287      1.0  0.87912  0.98359  0.82402  1.0000
  C   C240      1.0  0.88903  0.00000  0.78887  1.0000
  H   H288      1.0  0.98307  0.86574  0.86403  1.0000
