data_image0
_chemical_formula_structural       SH2S2FeC2HCFeCFeCH4NCHCHCHCHSH2S2FeSH2C2H2C2H5C2SHSHCHCH2CH2CSH3NC2H3C3H2C3HCFeH3NSCS2HCHCHFeSH2C3HCH2CHCFeCHFeHSCH2CH3CHCFeC3NCHC2H3CH6CH3CHSHCFeSHCHC4HCH3FeHCHC2SC2H2S2C2H3CHNH2CHCH7C2H3FeCSC3HCFeNCH2CH3CHSFeCH4C2HCSFeC2NCH3SC2H2SHC3HCSC2HCH2SH2CH2CHCH3SC2HCH2FeSHNC2H3CH3CH2CH5S3HCHCSHCHCHS3C5FeSFeHC3H6C2H2CHNC2HC2HC2H2CH2C2HSHCHS2H3C2FeH2C2HC3HCH2C2HCHSFeNC5HSC2Fe2CH2C2H2SH4S2HCH3CHNC6H4C2HCSH2C4HCH2CFeCH2CH3CS2CH2S2FeCH2CH2CHC2HSFeSC2H3NC2H5SH2C2HCHFeSHCHCS2FeCHC2HCSHFeC2SH2NHC3H2C2H2CHC2H2CHCHSHC2HNHC2H2SFeC3H4CH5NHC3FeCHC2HC2HSCH4C2HCFeH3SHNCSCHC3HCHFeHC4HC3H4C3H2C2H2S
_chemical_formula_sum              "S64 H288 Fe32 C240 N16"
_cell_length_a       22.6067
_cell_length_b       21.7609
_cell_length_c       18.5633
_cell_angle_alpha    98.6937
_cell_angle_beta     104.6
_cell_angle_gamma    67.5758

_space_group_name_H-M_alt    "P 1"
_space_group_IT_number       1

loop_
  _space_group_symop_operation_xyz
  'x, y, z'

loop_
  _atom_site_type_symbol
  _atom_site_label
  _atom_site_symmetry_multiplicity
  _atom_site_fract_x
  _atom_site_fract_y
  _atom_site_fract_z
  _atom_site_occupancy
  S   S1        1.0  0.33047  0.64079  0.02836  1.0000
  H   H1        1.0  0.24042  0.50763  0.08319  1.0000
  H   H2        1.0  0.36632  0.65364  0.17915  1.0000
  S   S2        1.0  0.32700  0.29222  0.05701  1.0000
  S   S3        1.0  0.63727  0.65548  0.07313  1.0000
  Fe  Fe1       1.0  0.56884  0.24015  0.09314  1.0000
  C   C1        1.0  0.36925  0.50367  0.13912  1.0000
  C   C2        1.0  0.35534  0.47672  0.19498  1.0000
  H   H3        1.0  0.27583  0.42262  0.10836  1.0000
  C   C3        1.0  0.24950  0.47442  0.12788  1.0000
  Fe  Fe2       1.0  0.42908  0.24309  0.03703  1.0000
  C   C4        1.0  0.20330  0.29330  0.99878  1.0000
  Fe  Fe3       1.0  0.53920  0.66368  0.00153  1.0000
  C   C5        1.0  0.26989  0.25963  0.99967  1.0000
  H   H4        1.0  0.61155  0.29419  0.00653  1.0000
  H   H5        1.0  0.53444  0.42449  0.16565  1.0000
  H   H6        1.0  0.24871  0.30446  0.17614  1.0000
  H   H7        1.0  0.33018  0.53843  0.10226  1.0000
  N   N1        1.0  0.28653  0.49347  0.20021  1.0000
  C   C6        1.0  0.66083  0.29280  0.02842  1.0000
  H   H8        1.0  0.63633  0.49211  0.10007  1.0000
  C   C7        1.0  0.48509  0.43993  0.17454  1.0000
  H   H9        1.0  0.26124  0.21753  0.15938  1.0000
  C   C8        1.0  0.43314  0.48557  0.12912  1.0000
  H   H10       1.0  0.18724  0.33953  0.03210  1.0000
  C   C9        1.0  0.23623  0.26385  0.19101  1.0000
  H   H11       1.0  0.25249  0.59591  0.17135  1.0000
  S   S4        1.0  0.48186  0.30431  0.01480  1.0000
  H   H12       1.0  0.31794  0.50875  0.96593  1.0000
  H   H13       1.0  0.44214  0.50670  0.08546  1.0000
  S   S5        1.0  0.50300  0.57863  0.97882  1.0000
  S   S6        1.0  0.51324  0.18501  0.12360  1.0000
  Fe  Fe4       1.0  0.40416  0.65689  0.98080  1.0000
  S   S7        1.0  0.64010  0.28494  0.16525  1.0000
  H   H14       1.0  0.20052  0.47700  0.13183  1.0000
  H   H15       1.0  0.21611  0.60821  0.01342  1.0000
  C   C10       1.0  0.20637  0.64258  0.97178  1.0000
  C   C11       1.0  0.28994  0.19977  0.95657  1.0000
  H   H16       1.0  0.34103  0.17187  0.95931  1.0000
  H   H17       1.0  0.63350  0.58577  0.20016  1.0000
  C   C12       1.0  0.25312  0.66881  0.96889  1.0000
  C   C13       1.0  0.24100  0.19896  0.29021  1.0000
  H   H18       1.0  0.23231  0.31401  0.37291  1.0000
  H   H19       1.0  0.63308  0.23456  0.35032  1.0000
  H   H20       1.0  0.51421  0.37862  0.26701  1.0000
  H   H21       1.0  0.22265  0.36205  0.29694  1.0000
  H   H22       1.0  0.68230  0.47372  0.29616  1.0000
  C   C14       1.0  0.40973  0.43187  0.24201  1.0000
  C   C15       1.0  0.25564  0.56615  0.21670  1.0000
  S   S8        1.0  0.47774  0.18410  0.41337  1.0000
  H   H23       1.0  0.37151  0.62473  0.26586  1.0000
  S   S9        1.0  0.39229  0.56246  0.39258  1.0000
  H   H24       1.0  0.35748  0.19998  0.27308  1.0000
  C   C16       1.0  0.28681  0.56539  0.44279  1.0000
  H   H25       1.0  0.34153  0.24900  0.35851  1.0000
  C   C17       1.0  0.27995  0.45871  0.25903  1.0000
  H   H26       1.0  0.22781  0.47286  0.26219  1.0000
  H   H27       1.0  0.33567  0.28821  0.27869  1.0000
  C   C18       1.0  0.67453  0.24291  0.38887  1.0000
  H   H28       1.0  0.25673  0.60335  0.40390  1.0000
  H   H29       1.0  0.47759  0.31263  0.39699  1.0000
  C   C19       1.0  0.32544  0.24751  0.29676  1.0000
  S   S10       1.0  0.58757  0.46981  0.43919  1.0000
  H   H30       1.0  0.20437  0.58005  0.22322  1.0000
  H   H31       1.0  0.66293  0.32914  0.33570  1.0000
  H   H32       1.0  0.28311  0.58306  0.26925  1.0000
  N   N2        1.0  0.25520  0.25548  0.27265  1.0000
  C   C20       1.0  0.21710  0.31711  0.31132  1.0000
  C   C21       1.0  0.35406  0.53452  0.44524  1.0000
  H   H33       1.0  0.30544  0.47207  0.31514  1.0000
  H   H34       1.0  0.40448  0.41005  0.28743  1.0000
  H   H35       1.0  0.43440  0.65090  0.25349  1.0000
  C   C22       1.0  0.38060  0.66223  0.24020  1.0000
  C   C23       1.0  0.47351  0.41370  0.23132  1.0000
  C   C24       1.0  0.67991  0.45778  0.23606  1.0000
  H   H36       1.0  0.29976  0.40384  0.24786  1.0000
  H   H37       1.0  0.62673  0.47151  0.21119  1.0000
  C   C25       1.0  0.51455  0.29241  0.44577  1.0000
  C   C26       1.0  0.39181  0.48407  0.49395  1.0000
  C   C27       1.0  0.44952  0.20734  0.60579  1.0000
  H   H38       1.0  0.37179  0.32853  0.65045  1.0000
  C   C28       1.0  0.36511  0.17231  0.62418  1.0000
  Fe  Fe5       1.0  0.60852  0.45338  0.56095  1.0000
  H   H39       1.0  0.64285  0.22338  0.62434  1.0000
  H   H40       1.0  0.46121  0.24785  0.58949  1.0000
  H   H41       1.0  0.35280  0.21609  0.48651  1.0000
  N   N3        1.0  0.37902  0.22887  0.60619  1.0000
  S   S11       1.0  0.51308  0.52836  0.57960  1.0000
  C   C29       1.0  0.37903  0.64308  0.65100  1.0000
  S   S12       1.0  0.26746  0.49186  0.61931  1.0000
  S   S13       1.0  0.64636  0.35096  0.60307  1.0000
  H   H42       1.0  0.52525  0.29308  0.68425  1.0000
  C   C30       1.0  0.57303  0.20383  0.53013  1.0000
  H   H43       1.0  0.51328  0.40753  0.66449  1.0000
  C   C31       1.0  0.60865  0.24206  0.57339  1.0000
  H   H44       1.0  0.35433  0.29688  0.52032  1.0000
  Fe  Fe6       1.0  0.56016  0.60433  0.60440  1.0000
  S   S14       1.0  0.65843  0.52749  0.59841  1.0000
  H   H45       1.0  0.28821  0.27552  0.52992  1.0000
  H   H46       1.0  0.43095  0.63993  0.66574  1.0000
  C   C32       1.0  0.34175  0.25518  0.53233  1.0000
  C   C33       1.0  0.59868  0.30480  0.55172  1.0000
  C   C34       1.0  0.36496  0.47050  0.54706  1.0000
  H   H47       1.0  0.37564  0.60132  0.60940  1.0000
  C   C35       1.0  0.36266  0.28478  0.66312  1.0000
  H   H48       1.0  0.31015  0.30154  0.66590  1.0000
  H   H49       1.0  0.48162  0.19283  0.66120  1.0000
  C   C36       1.0  0.29892  0.50447  0.54822  1.0000
  H   H50       1.0  0.39564  0.43426  0.58772  1.0000
  C   C37       1.0  0.25899  0.54937  0.49366  1.0000
  Fe  Fe7       1.0  0.49374  0.54892  0.45982  1.0000
  C   C38       1.0  0.55122  0.32987  0.48809  1.0000
  H   H51       1.0  0.44245  0.45662  0.49231  1.0000
  Fe  Fe8       1.0  0.63148  0.54857  0.47774  1.0000
  H   H52       1.0  0.20734  0.57407  0.49315  1.0000
  S   S15       1.0  0.53531  0.63036  0.48556  1.0000
  C   C39       1.0  0.52572  0.22910  0.46637  1.0000
  H   H53       1.0  0.67758  0.66859  0.64137  1.0000
  H   H54       1.0  0.54254  0.37826  0.47138  1.0000
  C   C40       1.0  0.67843  0.47101  0.89708  1.0000
  H   H55       1.0  0.19351  0.56307  0.76684  1.0000
  H   H56       1.0  0.67312  0.56245  0.76154  1.0000
  H   H57       1.0  0.64246  0.43726  0.75439  1.0000
  C   C41       1.0  0.31593  0.53057  0.82489  1.0000
  H   H58       1.0  0.25896  0.39805  0.91007  1.0000
  C   C42       1.0  0.51468  0.39480  0.71924  1.0000
  Fe  Fe9       1.0  0.51690  0.22396  0.92779  1.0000
  C   C43       1.0  0.51300  0.42594  0.84950  1.0000
  C   C44       1.0  0.23837  0.48143  0.84298  1.0000
  C   C45       1.0  0.50920  0.44310  0.77859  1.0000
  N   N4        1.0  0.30778  0.47340  0.85079  1.0000
  C   C46       1.0  0.66191  0.55034  0.81120  1.0000
  H   H59       1.0  0.38934  0.40728  0.80381  1.0000
  C   C47       1.0  0.34343  0.46616  0.92993  1.0000
  C   C48       1.0  0.33890  0.41276  0.80579  1.0000
  H   H60       1.0  0.60908  0.55723  0.79549  1.0000
  H   H61       1.0  0.52250  0.34874  0.91514  1.0000
  H   H62       1.0  0.39438  0.46476  0.93738  1.0000
  C   C49       1.0  0.52129  0.33006  0.73032  1.0000
  H   H63       1.0  0.66767  0.58889  0.85615  1.0000
  H   H64       1.0  0.68239  0.50753  0.94527  1.0000
  H   H65       1.0  0.50978  0.46242  0.89569  1.0000
  H   H66       1.0  0.29798  0.53484  0.76387  1.0000
  H   H67       1.0  0.67857  0.29306  0.91982  1.0000
  H   H68       1.0  0.31070  0.41504  0.74707  1.0000
  C   C50       1.0  0.52244  0.31365  0.80069  1.0000
  H   H69       1.0  0.62566  0.47721  0.87902  1.0000
  H   H70       1.0  0.28962  0.57827  0.85331  1.0000
  H   H71       1.0  0.34862  0.41932  0.95205  1.0000
  C   C51       1.0  0.22185  0.43750  0.87696  1.0000
  H   H72       1.0  0.36836  0.52526  0.83533  1.0000
  S   S16       1.0  0.52179  0.23552  0.81193  1.0000
  H   H73       1.0  0.34177  0.36675  0.82796  1.0000
  C   C52       1.0  0.52010  0.36118  0.86058  1.0000
  Fe  Fe10      1.0  0.47992  0.60023  0.85872  1.0000
  S   S17       1.0  0.49656  0.52469  0.76289  1.0000
  H   H74       1.0  0.39265  0.27096  0.71964  1.0000
  C   C53       1.0  0.24369  0.17383  0.91220  1.0000
  H   H75       1.0  0.36893  0.63278  0.70232  1.0000
  C   C54       1.0  0.18594  0.52877  0.79679  1.0000
  C   C55       1.0  0.30596  0.05988  0.17010  1.0000
  C   C56       1.0  0.30999  0.91331  0.02898  1.0000
  C   C57       1.0  0.53343  0.89668  0.99583  1.0000
  H   H76       1.0  0.25841  0.07546  0.02179  1.0000
  C   C58       1.0  0.23773  0.73538  0.17909  1.0000
  H   H77       1.0  0.21128  0.82848  0.03069  1.0000
  H   H78       1.0  0.42535  0.01358  0.14687  1.0000
  H   H79       1.0  0.34114  0.76885  0.16394  1.0000
  Fe  Fe11      1.0  0.54187  0.11281  0.02703  1.0000
  H   H80       1.0  0.42052  0.94515  0.08294  1.0000
  C   C59       1.0  0.23491  0.86499  0.04704  1.0000
  H   H81       1.0  0.25233  0.08887  0.15655  1.0000
  C   C60       1.0  0.21942  0.91178  0.10596  1.0000
  C   C61       1.0  0.39936  0.97762  0.12939  1.0000
  S   S18       1.0  0.44255  0.73970  0.01740  1.0000
  C   C62       1.0  0.29512  0.96202  0.08821  1.0000
  C   C63       1.0  0.24874  0.95986  0.12649  1.0000
  H   H82       1.0  0.57551  0.87103  0.03741  1.0000
  H   H83       1.0  0.33385  0.09075  0.05527  1.0000
  S   S19       1.0  0.60589  0.16192  0.00519  1.0000
  S   S20       1.0  0.57526  0.00175  0.03351  1.0000
  C   C64       1.0  0.65587  0.70775  0.95962  1.0000
  C   C65       1.0  0.28015  0.86592  0.00870  1.0000
  H   H84       1.0  0.23368  0.99493  0.17218  1.0000
  H   H85       1.0  0.26093  0.72413  0.13218  1.0000
  H   H86       1.0  0.33248  0.01978  0.99431  1.0000
  C   C66       1.0  0.31232  0.05103  0.04194  1.0000
  H   H87       1.0  0.29260  0.82999  0.96284  1.0000
  N   N5        1.0  0.32732  0.01197  0.10752  1.0000
  H   H88       1.0  0.41237  0.94572  0.17686  1.0000
  H   H89       1.0  0.33138  0.09631  0.18387  1.0000
  C   C67       1.0  0.49114  0.86401  0.95643  1.0000
  H   H90       1.0  0.34510  0.91147  0.99778  1.0000
  C   C68       1.0  0.52117  0.96225  0.98195  1.0000
  H   H91       1.0  0.50136  0.81351  0.96774  1.0000
  H   H92       1.0  0.65186  0.86079  0.18728  1.0000
  H   H93       1.0  0.60617  0.74187  0.95534  1.0000
  H   H94       1.0  0.67877  0.15577  0.23064  1.0000
  H   H95       1.0  0.30593  0.06086  0.39333  1.0000
  H   H96       1.0  0.26023  0.76454  0.36872  1.0000
  H   H97       1.0  0.19583  0.05592  0.34062  1.0000
  C   C69       1.0  0.27407  0.92145  0.35555  1.0000
  C   C70       1.0  0.23796  0.75760  0.31094  1.0000
  H   H98       1.0  0.61461  0.11477  0.28621  1.0000
  H   H99       1.0  0.40511  0.77642  0.23967  1.0000
  H   H100      1.0  0.19083  0.91413  0.38449  1.0000
  Fe  Fe12      1.0  0.50895  0.07773  0.44044  1.0000
  C   C71       1.0  0.20889  0.09473  0.32604  1.0000
  S   S21       1.0  0.38264  0.92848  0.32054  1.0000
  C   C72       1.0  0.27334  0.74150  0.25292  1.0000
  C   C73       1.0  0.27078  0.09788  0.35574  1.0000
  C   C74       1.0  0.37412  0.73925  0.34692  1.0000
  H   H101      1.0  0.66616  0.00706  0.34612  1.0000
  C   C75       1.0  0.33707  0.92349  0.38206  1.0000
  Fe  Fe13      1.0  0.46546  0.95890  0.38950  1.0000
  N   N6        1.0  0.34403  0.73086  0.26684  1.0000
  C   C76       1.0  0.23870  0.91700  0.40563  1.0000
  H   H102      1.0  0.42688  0.73199  0.35549  1.0000
  H   H103      1.0  0.37160  0.70231  0.38038  1.0000
  C   C77       1.0  0.66578  0.08519  0.28709  1.0000
  H   H104      1.0  0.33594  0.14825  0.36315  1.0000
  H   H105      1.0  0.25209  0.92411  0.29662  1.0000
  H   H106      1.0  0.31751  0.03386  0.22188  1.0000
  C   C78       1.0  0.28720  0.14881  0.33799  1.0000
  H   H107      1.0  0.35010  0.79008  0.37080  1.0000
  S   S22       1.0  0.52880  0.99791  0.34835  1.0000
  Fe  Fe14      1.0  0.61143  0.93897  0.43615  1.0000
  C   C79       1.0  0.35350  0.77853  0.22544  1.0000
  H   H108      1.0  0.32230  0.83057  0.23852  1.0000
  H   H109      1.0  0.29341  0.16508  0.52137  1.0000
  H   H110      1.0  0.41211  0.92368  0.47926  1.0000
  H   H111      1.0  0.32538  0.76659  0.53305  1.0000
  C   C80       1.0  0.34103  0.76203  0.67922  1.0000
  C   C81       1.0  0.26584  0.91528  0.48230  1.0000
  H   H112      1.0  0.67901  0.78768  0.52271  1.0000
  C   C82       1.0  0.31208  0.08897  0.59165  1.0000
  S   S23       1.0  0.55029  0.89211  0.46752  1.0000
  Fe  Fe15      1.0  0.52813  0.97812  0.55231  1.0000
  C   C83       1.0  0.53370  0.75818  0.69516  1.0000
  C   C84       1.0  0.68209  0.74032  0.54204  1.0000
  N   N7        1.0  0.33390  0.70834  0.62197  1.0000
  C   C85       1.0  0.23841  0.70042  0.66154  1.0000
  H   H113      1.0  0.24152  0.72583  0.48517  1.0000
  H   H114      1.0  0.40741  0.71543  0.57212  1.0000
  H   H115      1.0  0.27972  0.06760  0.55206  1.0000
  S   S24       1.0  0.52844  0.96527  0.67034  1.0000
  C   C86       1.0  0.26569  0.70985  0.60476  1.0000
  C   C87       1.0  0.52408  0.88819  0.68038  1.0000
  H   H116      1.0  0.30859  0.81200  0.65887  1.0000
  H   H117      1.0  0.58081  0.15593  0.54775  1.0000
  S   S25       1.0  0.44015  0.04282  0.47583  1.0000
  H   H118      1.0  0.46430  0.16378  0.56563  1.0000
  C   C88       1.0  0.34619  0.05911  0.65860  1.0000
  C   C89       1.0  0.36405  0.92142  0.45850  1.0000
  C   C90       1.0  0.22540  0.71807  0.53183  1.0000
  H   H119      1.0  0.50889  0.75070  0.57539  1.0000
  C   C91       1.0  0.51164  0.84719  0.61752  1.0000
  S   S26       1.0  0.22219  0.91150  0.54660  1.0000
  C   C92       1.0  0.35579  0.71727  0.55649  1.0000
  C   C93       1.0  0.32902  0.91657  0.50844  1.0000
  H   H120      1.0  0.39230  0.76145  0.69421  1.0000
  C   C94       1.0  0.51742  0.78205  0.62459  1.0000
  H   H121      1.0  0.65707  0.78880  0.67378  1.0000
  H   H122      1.0  0.63186  0.74723  0.54715  1.0000
  S   S27       1.0  0.59507  0.02133  0.52562  1.0000
  H   H123      1.0  0.35074  0.91476  0.56754  1.0000
  H   H124      1.0  0.49715  0.86552  0.56332  1.0000
  C   C95       1.0  0.32085  0.14501  0.57453  1.0000
  H   H125      1.0  0.35449  0.67681  0.51219  1.0000
  H   H126      1.0  0.34071  0.01459  0.67075  1.0000
  C   C96       1.0  0.39807  0.14129  0.69252  1.0000
  H   H127      1.0  0.41628  0.06120  0.76044  1.0000
  C   C97       1.0  0.38857  0.08562  0.70923  1.0000
  H   H128      1.0  0.45702  0.04432  0.91489  1.0000
  H   H129      1.0  0.65422  0.90346  0.78000  1.0000
  H   H130      1.0  0.57613  0.99236  0.83676  1.0000
  S   S28       1.0  0.52240  0.67987  0.88100  1.0000
  C   C98       1.0  0.23921  0.71404  0.91541  1.0000
  C   C99       1.0  0.43628  0.89637  0.90262  1.0000
  H   H131      1.0  0.24717  0.89347  0.75852  1.0000
  C   C100      1.0  0.21768  0.89598  0.79956  1.0000
  H   H132      1.0  0.43295  0.15874  0.73278  1.0000
  H   H133      1.0  0.32926  0.75747  0.73209  1.0000
  Fe  Fe16      1.0  0.42427  0.75196  0.89509  1.0000
  S   S29       1.0  0.38228  0.85551  0.85580  1.0000
  H   H134      1.0  0.63899  0.12288  0.84051  1.0000
  N   N8        1.0  0.67659  0.98412  0.84888  1.0000
  C   C101      1.0  0.54110  0.80066  0.75863  1.0000
  C   C102      1.0  0.46636  0.99466  0.92773  1.0000
  H   H135      1.0  0.66741  0.74039  0.86185  1.0000
  H   H136      1.0  0.59510  0.06072  0.88772  1.0000
  H   H137      1.0  0.25966  0.12683  0.88022  1.0000
  C   C103      1.0  0.42386  0.96193  0.88829  1.0000
  H   H138      1.0  0.38182  0.98716  0.84628  1.0000
  H   H139      1.0  0.55122  0.78314  0.81351  1.0000
  H   H140      1.0  0.58570  0.05072  0.78718  1.0000
  C   C104      1.0  0.53692  0.86551  0.75134  1.0000
  H   H141      1.0  0.27330  0.73728  0.91557  1.0000
  H   H142      1.0  0.23450  0.92526  0.84935  1.0000
  C   C105      1.0  0.60546  0.02410  0.83974  1.0000
  H   H143      1.0  0.23136  0.84450  0.81621  1.0000
  H   H144      1.0  0.54443  0.89730  0.80072  1.0000
  H   H145      1.0  0.66430  0.92212  0.92051  1.0000
  H   H146      1.0  0.26613  0.69352  0.71823  1.0000
  H   H147      1.0  0.67018  0.95886  0.73140  1.0000
  S   S30       1.0  0.37943  0.67378  0.85936  1.0000
  S   S31       1.0  0.54613  0.67527  0.70477  1.0000
  S   S32       1.0  0.45576  0.16909  0.94208  1.0000
  H   H148      1.0  0.02891  0.41213  0.03708  1.0000
  C   C106      1.0  0.76391  0.28784  0.00642  1.0000
  H   H149      1.0  0.77506  0.59180  0.07180  1.0000
  C   C107      1.0  0.75019  0.29048  0.13296  1.0000
  S   S33       1.0  0.96640  0.23266  0.11213  1.0000
  H   H150      1.0  0.80596  0.48177  0.12291  1.0000
  C   C108      1.0  0.06236  0.42568  0.15566  1.0000
  H   H151      1.0  0.83719  0.28962  0.10564  1.0000
  C   C109      1.0  0.09200  0.52293  0.19765  1.0000
  H   H152      1.0  0.10602  0.29252  0.95641  1.0000
  S   S34       1.0  0.08700  0.61202  0.10692  1.0000
  S   S35       1.0  0.10840  0.18322  0.06780  1.0000
  S   S36       1.0  0.05482  0.35467  0.17929  1.0000
  C   C110      1.0  0.78766  0.62672  0.97591  1.0000
  C   C111      1.0  0.04571  0.44347  0.08180  1.0000
  C   C112      1.0  0.78872  0.28900  0.08359  1.0000
  C   C113      1.0  0.15721  0.26667  0.95580  1.0000
  C   C114      1.0  0.05067  0.50242  0.06622  1.0000
  Fe  Fe17      1.0  0.03147  0.28058  0.09126  1.0000
  S   S37       1.0  0.98235  0.29648  0.97152  1.0000
  Fe  Fe18      1.0  0.92138  0.24213  0.99024  1.0000
  H   H153      1.0  0.03803  0.51650  0.00935  1.0000
  C   C115      1.0  0.82500  0.46553  0.17890  1.0000
  C   C116      1.0  0.69903  0.29203  0.97920  1.0000
  C   C117      1.0  0.07388  0.54205  0.12446  1.0000
  H   H154      1.0  0.77035  0.29022  0.19230  1.0000
  H   H155      1.0  0.90658  0.44319  0.00287  1.0000
  H   H156      1.0  0.92306  0.45039  0.17009  1.0000
  H   H157      1.0  0.18281  0.27781  0.16882  1.0000
  H   H158      1.0  0.79582  0.44370  0.97006  1.0000
  H   H159      1.0  0.83900  0.59610  0.98268  1.0000
  C   C118      1.0  0.75167  0.62462  0.02647  1.0000
  C   C119      1.0  0.68657  0.29072  0.10520  1.0000
  H   H160      1.0  0.70058  0.51257  0.08643  1.0000
  H   H161      1.0  0.71433  0.42688  0.09837  1.0000
  C   C120      1.0  0.68506  0.66380  0.01682  1.0000
  H   H162      1.0  0.71128  0.58804  0.19603  1.0000
  N   N9        1.0  0.71155  0.48988  0.19989  1.0000
  C   C121      1.0  0.69023  0.47950  0.11777  1.0000
  C   C122      1.0  0.74290  0.30886  0.43150  1.0000
  H   H163      1.0  0.97340  0.41687  0.29849  1.0000
  C   C123      1.0  0.10870  0.23021  0.43505  1.0000
  C   C124      1.0  0.04510  0.26962  0.40194  1.0000
  H   H164      1.0  0.75519  0.35118  0.42577  1.0000
  C   C125      1.0  0.99342  0.24679  0.39309  1.0000
  C   C126      1.0  0.92108  0.42905  0.27812  1.0000
  H   H165      1.0  0.03584  0.31739  0.38253  1.0000
  H   H166      1.0  0.83227  0.58705  0.30803  1.0000
  C   C127      1.0  0.81452  0.44555  0.29912  1.0000
  H   H167      1.0  0.16380  0.32594  0.29717  1.0000
  H   H168      1.0  0.97294  0.62669  0.20962  1.0000
  C   C128      1.0  0.08550  0.46539  0.21326  1.0000
  C   C129      1.0  0.88217  0.42772  0.32485  1.0000
  H   H169      1.0  0.84122  0.18286  0.25428  1.0000
  S   S38       1.0  0.70590  0.56006  0.42642  1.0000
  H   H170      1.0  0.94399  0.27773  0.36866  1.0000
  C   C130      1.0  0.99031  0.64128  0.32937  1.0000
  H   H171      1.0  0.90431  0.41444  0.38199  1.0000
  S   S39       1.0  0.15542  0.44632  0.44977  1.0000
  S   S40       1.0  0.98897  0.56335  0.34049  1.0000
  H   H172      1.0  0.75714  0.20246  0.25457  1.0000
  H   H173      1.0  0.87935  0.59210  0.20413  1.0000
  H   H174      1.0  0.78693  0.44643  0.33915  1.0000
  C   C131      1.0  0.89251  0.44796  0.20541  1.0000
  C   C132      1.0  0.71025  0.20067  0.44708  1.0000
  Fe  Fe19      1.0  0.05091  0.51333  0.44444  1.0000
  H   H175      1.0  0.13899  0.23311  0.23010  1.0000
  H   H176      1.0  0.09706  0.45256  0.27054  1.0000
  C   C133      1.0  0.97936  0.66062  0.25726  1.0000
  C   C134      1.0  0.81351  0.63252  0.27892  1.0000
  H   H177      1.0  0.10898  0.55393  0.24288  1.0000
  C   C135      1.0  0.84008  0.63545  0.22021  1.0000
  C   C136      1.0  0.69097  0.29663  0.38088  1.0000
  C   C137      1.0  0.00590  0.18406  0.41628  1.0000
  H   H178      1.0  0.69921  0.57295  0.28122  1.0000
  C   C138      1.0  0.78379  0.46428  0.22486  1.0000
  H   H179      1.0  0.82005  0.59406  0.44424  1.0000
  H   H180      1.0  0.70280  0.40261  0.23068  1.0000
  C   C139      1.0  0.17793  0.19497  0.26278  1.0000
  C   C140      1.0  0.68740  0.56221  0.22011  1.0000
  H   H181      1.0  0.74420  0.61945  0.59659  1.0000
  C   C141      1.0  0.90098  0.49880  0.59338  1.0000
  H   H182      1.0  0.81181  0.25006  0.64099  1.0000
  S   S41       1.0  0.06820  0.55740  0.56171  1.0000
  Fe  Fe20      1.0  0.17078  0.48309  0.56946  1.0000
  N   N10       1.0  0.04714  0.25997  0.66454  1.0000
  C   C142      1.0  0.79566  0.20692  0.63458  1.0000
  C   C143      1.0  0.78364  0.53093  0.48534  1.0000
  C   C144      1.0  0.79756  0.48440  0.53743  1.0000
  C   C145      1.0  0.77859  0.26735  0.49030  1.0000
  C   C146      1.0  0.09608  0.19536  0.64409  1.0000
  H   H183      1.0  0.76388  0.45962  0.53513  1.0000
  S   S42       1.0  0.02347  0.43376  0.47462  1.0000
  C   C147      1.0  0.83005  0.55855  0.48471  1.0000
  C   C148      1.0  0.76354  0.21179  0.49992  1.0000
  Fe  Fe21      1.0  0.04714  0.47286  0.59225  1.0000
  Fe  Fe22      1.0  0.12918  0.37055  0.48965  1.0000
  C   C149      1.0  0.01130  0.29486  0.59500  1.0000
  H   H184      1.0  0.86501  0.43490  0.63379  1.0000
  H   H185      1.0  0.81793  0.27937  0.52854  1.0000
  C   C150      1.0  0.85534  0.46967  0.59269  1.0000
  C   C151      1.0  0.88886  0.54209  0.53835  1.0000
  H   H186      1.0  0.92431  0.56411  0.53795  1.0000
  H   H187      1.0  0.13132  0.20259  0.61663  1.0000
  S   S43       1.0  0.17135  0.26223  0.45736  1.0000
  H   H188      1.0  0.74387  0.22757  0.63990  1.0000
  H   H189      1.0  0.98282  0.26682  0.55611  1.0000
  H   H190      1.0  0.04525  0.30120  0.56483  1.0000
  H   H191      1.0  0.75982  0.64729  0.69222  1.0000
  S   S44       1.0  0.97564  0.47696  0.65867  1.0000
  S   S45       1.0  0.15122  0.40259  0.61023  1.0000
  H   H192      1.0  0.97638  0.34563  0.60585  1.0000
  C   C152      1.0  0.72792  0.66211  0.63694  1.0000
  H   H193      1.0  0.82429  0.17557  0.68268  1.0000
  H   H194      1.0  0.12265  0.30270  0.68920  1.0000
  H   H195      1.0  0.89432  0.18188  0.56999  1.0000
  C   C153      1.0  0.81317  0.45726  0.92796  1.0000
  H   H196      1.0  0.88015  0.23863  0.81447  1.0000
  N   N11       1.0  0.70346  0.48236  0.83546  1.0000
  C   C154      1.0  0.17737  0.20671  0.91290  1.0000
  C   C155      1.0  0.99892  0.19001  0.71356  1.0000
  C   C156      1.0  0.91023  0.30484  0.76979  1.0000
  C   C157      1.0  0.14690  0.65988  0.91959  1.0000
  C   C158      1.0  0.08412  0.29946  0.71420  1.0000
  C   C159      1.0  0.12113  0.53319  0.78769  1.0000
  H   H197      1.0  0.70476  0.41934  0.91570  1.0000
  H   H198      1.0  0.77539  0.50521  0.74979  1.0000
  H   H199      1.0  0.70937  0.18510  0.84934  1.0000
  H   H200      1.0  0.95045  0.35980  0.72350  1.0000
  C   C160      1.0  0.69476  0.43306  0.77319  1.0000
  C   C161      1.0  0.80255  0.49079  0.80526  1.0000
  H   H201      1.0  0.11155  0.63858  0.92174  1.0000
  C   C162      1.0  0.95609  0.18519  0.75344  1.0000
  S   S46       1.0  0.98710  0.63315  0.89932  1.0000
  H   H202      1.0  0.87626  0.34913  0.79262  1.0000
  H   H203      1.0  0.88776  0.50228  0.78561  1.0000
  C   C163      1.0  0.91227  0.24247  0.78206  1.0000
  C   C164      1.0  0.77304  0.47644  0.85664  1.0000
  C   C165      1.0  0.86718  0.48870  0.82501  1.0000
  C   C166      1.0  0.10659  0.49033  0.82309  1.0000
  H   H204      1.0  0.05617  0.49412  0.81545  1.0000
  C   C167      1.0  0.99984  0.25293  0.70245  1.0000
  H   H205      1.0  0.05241  0.35175  0.72534  1.0000
  H   H206      1.0  0.08177  0.57035  0.75303  1.0000
  C   C168      1.0  0.95313  0.31027  0.73048  1.0000
  Fe  Fe23      1.0  0.05461  0.19515  0.94867  1.0000
  C   C169      1.0  0.90445  0.47177  0.89614  1.0000
  H   H207      1.0  0.10834  0.27688  0.76904  1.0000
  H   H208      1.0  0.72391  0.38118  0.78992  1.0000
  C   C170      1.0  0.15682  0.44253  0.86762  1.0000
  H   H209      1.0  0.14535  0.40888  0.89465  1.0000
  H   H210      1.0  0.95398  0.47175  0.91187  1.0000
  H   H211      1.0  0.70985  0.43959  0.72332  1.0000
  C   C171      1.0  0.75628  0.66633  0.91472  1.0000
  S   S47       1.0  0.79755  0.66369  0.84604  1.0000
  S   S48       1.0  0.81264  0.28077  0.94287  1.0000
  C   C172      1.0  0.87758  0.45587  0.94733  1.0000
  H   H212      1.0  0.69712  0.98399  0.96859  1.0000
  H   H213      1.0  0.14582  0.73653  0.10747  1.0000
  S   S49       1.0  0.98977  0.14132  0.95660  1.0000
  S   S50       1.0  0.07457  0.04567  0.14271  1.0000
  Fe  Fe24      1.0  0.90978  0.81191  0.98740  1.0000
  C   C173      1.0  0.95184  0.04686  0.07710  1.0000
  H   H214      1.0  0.76688  0.76968  0.06241  1.0000
  H   H215      1.0  0.94048  0.09749  0.06449  1.0000
  C   C174      1.0  0.91853  0.95201  0.06798  1.0000
  H   H216      1.0  0.84338  0.69507  0.14184  1.0000
  H   H217      1.0  0.09279  0.98513  0.00228  1.0000
  C   C175      1.0  0.97998  0.91608  0.10998  1.0000
  H   H218      1.0  0.71269  0.85444  0.06127  1.0000
  C   C176      1.0  0.17163  0.74294  0.16424  1.0000
  C   C177      1.0  0.01371  0.01067  0.11791  1.0000
  H   H219      1.0  0.99063  0.86580  0.12367  1.0000
  S   S51       1.0  0.90128  0.72256  0.02302  1.0000
  Fe  Fe25      1.0  0.03886  0.13651  0.07808  1.0000
  S   S52       1.0  0.01727  0.76340  0.99299  1.0000
  C   C178      1.0  0.90419  0.01770  0.05264  1.0000
  C   C179      1.0  0.02749  0.94563  0.13553  1.0000
  H   H220      1.0  0.79659  0.88580  0.16304  1.0000
  H   H221      1.0  0.96964  0.73758  0.19010  1.0000
  H   H222      1.0  0.81081  0.13019  0.12327  1.0000
  N   N12       1.0  0.75106  0.81641  0.17117  1.0000
  C   C180      1.0  0.72836  0.80731  0.08945  1.0000
  C   C181      1.0  0.78248  0.10886  0.14666  1.0000
  H   H223      1.0  0.73099  0.14419  0.13533  1.0000
  H   H224      1.0  0.78365  0.06096  0.11444  1.0000
  H   H225      1.0  0.84874  0.80091  0.15939  1.0000
  H   H226      1.0  0.85656  0.04575  0.02083  1.0000
  H   H227      1.0  0.01319  0.92762  0.97318  1.0000
  S   S53       1.0  0.85971  0.91514  0.03314  1.0000
  H   H228      1.0  0.07497  0.91774  0.16796  1.0000
  H   H229      1.0  0.68472  0.91910  0.17131  1.0000
  C   C182      1.0  0.81916  0.69483  0.18499  1.0000
  C   C183      1.0  0.80882  0.83683  0.18572  1.0000
  H   H230      1.0  0.68594  0.79061  0.07689  1.0000
  C   C184      1.0  0.69749  0.87219  0.19882  1.0000
  H   H231      1.0  0.18347  0.91176  0.13528  1.0000
  Fe  Fe26      1.0  0.00729  0.67115  0.01842  1.0000
  S   S54       1.0  0.05986  0.97356  0.38721  1.0000
  H   H232      1.0  0.90384  0.04762  0.29599  1.0000
  C   C185      1.0  0.99523  0.74929  0.37940  1.0000
  H   H233      1.0  0.78183  0.93854  0.34576  1.0000
  C   C186      1.0  0.77008  0.07072  0.25608  1.0000
  S   S55       1.0  0.97682  0.84830  0.29003  1.0000
  S   S56       1.0  0.92618  0.99094  0.43854  1.0000
  Fe  Fe27      1.0  0.98665  0.05257  0.44441  1.0000
  C   C187      1.0  0.79695  0.00772  0.28760  1.0000
  H   H234      1.0  0.08720  0.76386  0.21042  1.0000
  C   C188      1.0  0.70287  0.10809  0.25527  1.0000
  C   C189      1.0  0.16255  0.14323  0.27968  1.0000
  H   H235      1.0  0.99954  0.78394  0.42650  1.0000
  C   C190      1.0  0.99911  0.68533  0.39075  1.0000
  S   S57       1.0  0.94127  0.15787  0.41266  1.0000
  H   H236      1.0  0.84638  0.83750  0.41639  1.0000
  Fe  Fe28      1.0  0.00423  0.90895  0.39148  1.0000
  C   C191      1.0  0.76369  0.68822  0.30056  1.0000
  C   C192      1.0  0.97698  0.72364  0.24611  1.0000
  S   S58       1.0  0.71120  0.87344  0.41801  1.0000
  H   H237      1.0  0.69426  0.16049  0.45014  1.0000
  H   H238      1.0  0.83000  0.84037  0.24661  1.0000
  N   N13       1.0  0.80944  0.09849  0.22723  1.0000
  H   H239      1.0  0.71161  0.88312  0.25979  1.0000
  C   C193      1.0  0.07007  0.14336  0.44593  1.0000
  C   C194      1.0  0.75978  0.98596  0.32043  1.0000
  C   C195      1.0  0.74139  0.74756  0.26466  1.0000
  H   H240      1.0  0.81910  0.15895  0.32918  1.0000
  H   H241      1.0  0.14475  0.77882  0.33981  1.0000
  C   C196      1.0  0.98401  0.76842  0.30692  1.0000
  C   C197      1.0  0.87971  0.05519  0.23633  1.0000
  H   H242      1.0  0.84686  0.97445  0.28836  1.0000
  H   H243      1.0  0.70274  0.78861  0.28436  1.0000
  C   C198      1.0  0.13857  0.75807  0.22222  1.0000
  H   H244      1.0  0.74280  0.68571  0.34609  1.0000
  C   C199      1.0  0.80649  0.16346  0.26782  1.0000
  C   C200      1.0  0.76963  0.75310  0.20662  1.0000
  H   H245      1.0  0.11354  0.14208  0.25885  1.0000
  H   H246      1.0  0.90798  0.07753  0.21429  1.0000
  C   C201      1.0  0.69453  0.02459  0.32057  1.0000
  H   H247      1.0  0.88632  0.00566  0.20583  1.0000
  C   C202      1.0  0.17146  0.76592  0.29530  1.0000
  H   H248      1.0  0.00663  0.67086  0.44650  1.0000
  S   S59       1.0  0.04385  0.02597  0.55977  1.0000
  H   H249      1.0  0.93444  0.86895  0.50194  1.0000
  C   C203      1.0  0.78354  0.10988  0.56170  1.0000
  C   C204      1.0  0.92743  0.69959  0.60627  1.0000
  H   H250      1.0  0.80860  0.96582  0.65595  1.0000
  N   N14       1.0  0.80272  0.16823  0.56236  1.0000
  H   H251      1.0  0.13363  0.71905  0.46020  1.0000
  C   C205      1.0  0.87797  0.71610  0.54242  1.0000
  C   C206      1.0  0.77608  0.88631  0.48584  1.0000
  H   H252      1.0  0.15603  0.68933  0.68980  1.0000
  H   H253      1.0  0.07228  0.16423  0.60338  1.0000
  S   S60       1.0  0.93526  0.95508  0.63479  1.0000
  Fe  Fe29      1.0  0.11372  0.94157  0.50231  1.0000
  C   C207      1.0  0.81689  0.93759  0.60387  1.0000
  C   C208      1.0  0.79792  0.71324  0.60917  1.0000
  C   C209      1.0  0.16287  0.71458  0.51667  1.0000
  H   H254      1.0  0.16114  0.88745  0.65712  1.0000
  H   H255      1.0  0.03262  0.14370  0.69466  1.0000
  H   H256      1.0  0.71095  0.82512  0.65558  1.0000
  H   H257      1.0  0.87908  0.11923  0.50250  1.0000
  C   C210      1.0  0.87684  0.92137  0.58343  1.0000
  H   H258      1.0  0.72035  0.93271  0.57068  1.0000
  H   H259      1.0  0.97664  0.69531  0.60569  1.0000
  H   H260      1.0  0.08955  0.70170  0.56126  1.0000
  H   H261      1.0  0.81429  0.07784  0.60880  1.0000
  H   H262      1.0  0.07938  0.90912  0.66893  1.0000
  N   N15       1.0  0.73025  0.72334  0.61378  1.0000
  H   H263      1.0  0.90325  0.10396  0.59999  1.0000
  C   C211      1.0  0.88777  0.88336  0.51704  1.0000
  C   C212      1.0  0.87288  0.14228  0.55884  1.0000
  C   C213      1.0  0.13796  0.70457  0.57350  1.0000
  Fe  Fe30      1.0  0.98864  0.95795  0.54988  1.0000
  C   C214      1.0  0.76649  0.91994  0.55497  1.0000
  H   H264      1.0  0.78975  0.07729  0.50963  1.0000
  C   C215      1.0  0.81399  0.72332  0.54353  1.0000
  C   C216      1.0  0.84997  0.69510  0.67265  1.0000
  H   H265      1.0  0.73201  0.12548  0.56779  1.0000
  C   C217      1.0  0.91360  0.68847  0.67101  1.0000
  C   C218      1.0  0.70842  0.77846  0.66993  1.0000
  H   H266      1.0  0.08026  0.09458  0.46316  1.0000
  S   S61       1.0  0.06321  0.87097  0.50259  1.0000
  C   C219      1.0  0.83775  0.86548  0.46858  1.0000
  H   H267      1.0  0.12554  0.16698  0.69437  1.0000
  H   H268      1.0  0.77817  0.73714  0.49223  1.0000
  H   H269      1.0  0.88916  0.72377  0.49171  1.0000
  H   H270      1.0  0.17077  0.13578  0.48038  1.0000
  C   C220      1.0  0.13181  0.88751  0.69721  1.0000
  C   C221      1.0  0.17553  0.69774  0.64589  1.0000
  H   H271      1.0  0.69509  0.69990  0.49772  1.0000
  C   C222      1.0  0.12146  0.16654  0.45552  1.0000
  Fe  Fe31      1.0  0.99164  0.72829  0.87370  1.0000
  H   H272      1.0  0.87883  0.00562  0.87351  1.0000
  H   H273      1.0  0.73633  0.89881  0.78979  1.0000
  H   H274      1.0  0.07693  0.02032  0.73056  1.0000
  S   S62       1.0  0.05792  0.72739  0.80213  1.0000
  H   H275      1.0  0.82938  0.12841  0.86713  1.0000
  N   N16       1.0  0.14638  0.92585  0.76835  1.0000
  C   C223      1.0  0.69074  0.09477  0.84747  1.0000
  S   S63       1.0  0.88455  0.78615  0.86484  1.0000
  C   C224      1.0  0.68496  0.93412  0.78481  1.0000
  H   H276      1.0  0.95818  0.13665  0.76409  1.0000
  C   C225      1.0  0.06180  0.89469  0.80813  1.0000
  C   C226      1.0  0.82613  0.03051  0.86537  1.0000
  C   C227      1.0  0.78644  0.99352  0.86133  1.0000
  H   H277      1.0  0.15284  0.98512  0.91038  1.0000
  C   C228      1.0  0.18028  0.73038  0.86222  1.0000
  H   H278      1.0  0.05008  0.86864  0.75531  1.0000
  Fe  Fe32      1.0  0.88238  0.69362  0.90094  1.0000
  H   H279      1.0  0.73879  0.76661  0.72694  1.0000
  C   C229      1.0  0.11873  0.95913  0.89496  1.0000
  C   C230      1.0  0.79846  0.09947  0.86171  1.0000
  C   C231      1.0  0.13396  0.70328  0.86431  1.0000
  C   C232      1.0  0.71743  0.02449  0.85246  1.0000
  H   H280      1.0  0.84181  0.68648  0.72447  1.0000
  C   C233      1.0  0.69734  0.94864  0.91842  1.0000
  C   C234      1.0  0.02783  0.89562  0.86185  1.0000
  C   C235      1.0  0.10903  0.92598  0.82346  1.0000
  H   H281      1.0  0.81045  0.94045  0.86676  1.0000
  H   H282      1.0  0.99277  0.87055  0.84919  1.0000
  H   H283      1.0  0.74742  0.91036  0.92434  1.0000
  H   H284      1.0  0.14625  0.02596  0.79994  1.0000
  C   C236      1.0  0.13066  0.99530  0.75064  1.0000
  C   C237      1.0  0.73090  0.13141  0.85229  1.0000
  C   C238      1.0  0.69095  0.70808  0.90771  1.0000
  H   H285      1.0  0.16981  0.76527  0.82096  1.0000
  H   H286      1.0  0.14318  0.83452  0.70645  1.0000
  C   C239      1.0  0.08438  0.95970  0.94807  1.0000
  C   C240      1.0  0.03933  0.92766  0.93175  1.0000
  H   H287      1.0  0.95244  0.67487  0.72036  1.0000
  H   H288      1.0  0.15568  0.99710  0.70677  1.0000
  S   S64       1.0  0.12051  0.16931  0.86799  1.0000
