data_image0
_chemical_formula_structural       HCHSH4CH2CHCH2SCHCH2C4HCH2C4SHC2HFeCHS2C2H4FeH2C5SH3C3HSH3CH4CFeS2FeS2HC2HC6HCHCHCH3C2HSCHC2H3SCFeCNCH4CHCHC2SHCH2CHC2NC2H2FeH2CH3CH3CHSHFeS2HS2HFeHC4H2CHC6HCHNHC2H2CH4NH2CH2CS2HCH2C2H3C2H2FeHC3SFeHCH2SH2NH2FeS3Fe2HC3H2C2H2C3HC2H2CHCH3SH2C2HSHCSCHSHFeC4H2SCNCH2C2HCFeCHCHCHCS2FeH2C4HCSCHS2CH2FeH2FeCHCHFeSHCH2CSFeHCHC2HCNCHNSHC5H2CH3SH2SH3CH2FeHFeC4H2CHCHNHCH2SC2HFeS2H2SFeHSC5HC6H4CH5CHN2CHCH2SCHCHC2H2S2CHCH4CFeHCHC3H2SH2FeHCSCHC3HFeS2H3CH2SC6H7C2HC2H3CFeCHFeHSCSH2C2NH3C2HCHCH3CHSC2HNC2HCH4CH2CH2CSCFeHSH3C2H3C2HCH3C4NC4HNFeCHC2HCH3SHCH4SCHC4HCNC2SH4CHSFeH4CSH3CH5CH
_chemical_formula_sum              "H288 C240 S64 Fe32 N16"
_cell_length_a       32.545
_cell_length_b       33.0364
_cell_length_c       24.4027
_cell_angle_alpha    91.3168
_cell_angle_beta     88.6009
_cell_angle_gamma    90.355

_space_group_name_H-M_alt    "P 1"
_space_group_IT_number       1

loop_
  _space_group_symop_operation_xyz
  'x, y, z'

loop_
  _atom_site_type_symbol
  _atom_site_label
  _atom_site_symmetry_multiplicity
  _atom_site_fract_x
  _atom_site_fract_y
  _atom_site_fract_z
  _atom_site_occupancy
  H   H1        1.0  0.48124  0.13230  0.12843  1.0000
  C   C1        1.0  0.51630  0.08548  0.50145  1.0000
  H   H2        1.0  0.31156  0.30149  0.06278  1.0000
  S   S1        1.0  0.47801  0.23642  0.05119  1.0000
  H   H3        1.0  0.50168  0.03283  0.33476  1.0000
  H   H4        1.0  0.43672  0.09324  0.29654  1.0000
  H   H5        1.0  0.52249  0.02695  0.40135  1.0000
  H   H6        1.0  0.50346  0.18033  0.14728  1.0000
  C   C2        1.0  0.46585  0.10859  0.28936  1.0000
  H   H7        1.0  0.46801  0.09252  0.20438  1.0000
  H   H8        1.0  0.46814  0.25179  0.25411  1.0000
  C   C3        1.0  0.49313  0.04315  0.02383  1.0000
  H   H9        1.0  0.47745  0.32779  0.13997  1.0000
  C   C4        1.0  0.50100  0.25594  0.24896  1.0000
  H   H10       1.0  0.44187  0.32684  0.23075  1.0000
  H   H11       1.0  0.38163  0.28426  0.02678  1.0000
  S   S2        1.0  0.50309  0.25349  0.36056  1.0000
  C   C5        1.0  0.32811  0.32254  0.03692  1.0000
  H   H12       1.0  0.50992  0.11694  0.49499  1.0000
  C   C6        1.0  0.48400  0.10841  0.23678  1.0000
  H   H13       1.0  0.49943  0.25689  0.16091  1.0000
  H   H14       1.0  0.51728  0.06993  0.14364  1.0000
  C   C7        1.0  0.43002  0.34545  0.19869  1.0000
  C   C8        1.0  0.48449  0.12943  0.33246  1.0000
  C   C9        1.0  0.51869  0.25868  0.19618  1.0000
  C   C10       1.0  0.51080  0.14905  0.13240  1.0000
  H   H15       1.0  0.47004  0.13043  0.37300  1.0000
  C   C11       1.0  0.45012  0.34587  0.14764  1.0000
  H   H16       1.0  0.52400  0.15122  0.09009  1.0000
  H   H17       1.0  0.46067  0.03881  0.03278  1.0000
  C   C12       1.0  0.52148  0.12932  0.22578  1.0000
  C   C13       1.0  0.52130  0.15009  0.32313  1.0000
  C   C14       1.0  0.52577  0.25800  0.29509  1.0000
  C   C15       1.0  0.36775  0.31271  0.01661  1.0000
  S   S3        1.0  0.52617  0.20012  0.49360  1.0000
  H   H18       1.0  0.43650  0.34767  0.73849  1.0000
  C   C16       1.0  0.34442  0.34381  0.84204  1.0000
  C   C17       1.0  0.48667  0.11163  0.73302  1.0000
  H   H19       1.0  0.37558  0.29301  0.87577  1.0000
  Fe  Fe1       1.0  0.49647  0.18522  0.99283  1.0000
  C   C18       1.0  0.38911  0.33965  0.98281  1.0000
  H   H20       1.0  0.43612  0.11028  0.79194  1.0000
  S   S4        1.0  0.48848  0.22207  0.91758  1.0000
  S   S5        1.0  0.43831  0.32857  0.95482  1.0000
  C   C19       1.0  0.52078  0.26234  0.73865  1.0000
  C   C20       1.0  0.53278  0.14216  0.81978  1.0000
  H   H21       1.0  0.51455  0.03031  0.90757  1.0000
  H   H22       1.0  0.43437  0.29598  0.81031  1.0000
  H   H23       1.0  0.48561  0.04413  0.85060  1.0000
  H   H24       1.0  0.46741  0.10049  0.70041  1.0000
  Fe  Fe2       1.0  0.47715  0.27476  0.97608  1.0000
  H   H25       1.0  0.50870  0.06465  0.64036  1.0000
  H   H26       1.0  0.48986  0.27390  0.73658  1.0000
  C   C21       1.0  0.46848  0.11707  0.78521  1.0000
  C   C22       1.0  0.37615  0.31565  0.84421  1.0000
  C   C23       1.0  0.40940  0.31735  0.80739  1.0000
  C   C24       1.0  0.52656  0.14185  0.62836  1.0000
  C   C25       1.0  0.41068  0.34680  0.76742  1.0000
  S   S6        1.0  0.47228  0.12093  0.99970  1.0000
  H   H27       1.0  0.47735  0.13661  0.86898  1.0000
  H   H28       1.0  0.52141  0.26498  0.82681  1.0000
  H   H29       1.0  0.49357  0.13411  0.62333  1.0000
  C   C26       1.0  0.50749  0.08095  0.00631  1.0000
  C   C27       1.0  0.49156  0.13212  0.82857  1.0000
  C   C28       1.0  0.52872  0.12116  0.72272  1.0000
  H   H30       1.0  0.52742  0.35575  0.67752  1.0000
  S   S7        1.0  0.52069  0.26203  0.62693  1.0000
  H   H31       1.0  0.52806  0.17408  0.64264  1.0000
  H   H32       1.0  0.31963  0.34137  0.87213  1.0000
  H   H33       1.0  0.45287  0.07033  0.51921  1.0000
  C   C29       1.0  0.48395  0.05897  0.51502  1.0000
  H   H34       1.0  0.07277  0.60969  0.28134  1.0000
  H   H35       1.0  0.11168  0.52712  0.12034  1.0000
  H   H36       1.0  0.47133  0.63555  0.45276  1.0000
  H   H37       1.0  0.23543  0.57232  0.34652  1.0000
  C   C30       1.0  0.34676  0.67183  0.31557  1.0000
  Fe  Fe3       1.0  0.23014  0.52907  0.45675  1.0000
  S   S8        1.0  0.24547  0.48977  0.38253  1.0000
  S   S9        1.0  0.21599  0.59566  0.46116  1.0000
  Fe  Fe4       1.0  0.21738  0.51555  0.07942  1.0000
  S   S10       1.0  0.18468  0.45662  0.09223  1.0000
  S   S11       1.0  0.22819  0.56151  0.14693  1.0000
  H   H38       1.0  0.22937  0.59994  0.25336  1.0000
  C   C31       1.0  0.32571  0.61752  0.37523  1.0000
  C   C32       1.0  0.11666  0.52350  0.16500  1.0000
  H   H39       1.0  0.23506  0.47943  0.18393  1.0000
  C   C33       1.0  0.23933  0.51035  0.31776  1.0000
  C   C34       1.0  0.23894  0.48422  0.27176  1.0000
  C   C35       1.0  0.23519  0.49974  0.21917  1.0000
  C   C36       1.0  0.23216  0.54148  0.21245  1.0000
  C   C37       1.0  0.23206  0.56763  0.25846  1.0000
  C   C38       1.0  0.23543  0.55206  0.31118  1.0000
  H   H40       1.0  0.24152  0.45190  0.27695  1.0000
  C   C39       1.0  0.09518  0.58144  0.35205  1.0000
  H   H41       1.0  0.38922  0.40959  0.08114  1.0000
  C   C40       1.0  0.04708  0.50606  0.03575  1.0000
  H   H42       1.0  0.08376  0.60502  0.38008  1.0000
  C   C41       1.0  0.08914  0.58376  0.29560  1.0000
  H   H43       1.0  0.05013  0.56253  0.14141  1.0000
  H   H44       1.0  0.15337  0.59563  0.19107  1.0000
  H   H45       1.0  0.37472  0.46276  0.22500  1.0000
  C   C42       1.0  0.13315  0.51960  0.33731  1.0000
  C   C43       1.0  0.48142  0.65835  0.48224  1.0000
  H   H46       1.0  0.12243  0.54818  0.41642  1.0000
  S   S12       1.0  0.26683  0.48879  0.02465  1.0000
  C   C44       1.0  0.37861  0.39351  0.16739  1.0000
  H   H47       1.0  0.30330  0.46391  0.14392  1.0000
  C   C45       1.0  0.39960  0.39277  0.11553  1.0000
  C   C46       1.0  0.12041  0.59537  0.17966  1.0000
  H   H48       1.0  0.30785  0.59023  0.38263  1.0000
  H   H49       1.0  0.15122  0.49532  0.35367  1.0000
  H   H50       1.0  0.32270  0.42744  0.09579  1.0000
  S   S13       1.0  0.26021  0.37094  0.05019  1.0000
  C   C47       1.0  0.34941  0.63438  0.41672  1.0000
  Fe  Fe5       1.0  0.14834  0.47325  0.01929  1.0000
  C   C48       1.0  0.05515  0.56048  0.18624  1.0000
  N   N1        1.0  0.34111  0.41783  0.17885  1.0000
  C   C49       1.0  0.43482  0.36929  0.10615  1.0000
  H   H51       1.0  0.30525  0.62331  0.29286  1.0000
  H   H52       1.0  0.15048  0.52120  0.16946  1.0000
  H   H53       1.0  0.27627  0.40698  0.19359  1.0000
  H   H54       1.0  0.32001  0.46462  0.23618  1.0000
  C   C50       1.0  0.30570  0.39015  0.18808  1.0000
  H   H55       1.0  0.11963  0.59816  0.13426  1.0000
  C   C51       1.0  0.11713  0.54943  0.37279  1.0000
  H   H56       1.0  0.34371  0.68576  0.27626  1.0000
  C   C52       1.0  0.10506  0.55389  0.25810  1.0000
  C   C53       1.0  0.34645  0.44378  0.22874  1.0000
  S   S14       1.0  0.07945  0.46409  0.02357  1.0000
  H   H57       1.0  0.34932  0.62033  0.45654  1.0000
  C   C54       1.0  0.32431  0.63624  0.32476  1.0000
  H   H58       1.0  0.26896  0.68818  0.48562  1.0000
  H   H59       1.0  0.14172  0.49802  0.25576  1.0000
  C   C55       1.0  0.33070  0.44497  0.13351  1.0000
  H   H60       1.0  0.10208  0.49418  0.17625  1.0000
  C   C56       1.0  0.51911  0.67830  0.47438  1.0000
  C   C57       1.0  0.05885  0.54507  0.02036  1.0000
  N   N2        1.0  0.09953  0.55791  0.19833  1.0000
  C   C58       1.0  0.37203  0.66993  0.40801  1.0000
  C   C59       1.0  0.12741  0.52162  0.28077  1.0000
  H   H61       1.0  0.10620  0.62320  0.19787  1.0000
  H   H62       1.0  0.34856  0.42599  0.26665  1.0000
  Fe  Fe6       1.0  0.23103  0.43086  0.03137  1.0000
  H   H63       1.0  0.35641  0.46615  0.12364  1.0000
  H   H64       1.0  0.04022  0.58760  0.20539  1.0000
  C   C60       1.0  0.39463  0.36864  0.20845  1.0000
  H   H65       1.0  0.30923  0.37156  0.22503  1.0000
  H   H66       1.0  0.03826  0.53327  0.20075  1.0000
  H   H67       1.0  0.30207  0.36876  0.15250  1.0000
  C   C61       1.0  0.37183  0.68952  0.35668  1.0000
  H   H68       1.0  0.37971  0.36667  0.24836  1.0000
  H   H69       1.0  0.45009  0.36882  0.06606  1.0000
  H   H70       1.0  0.38836  0.68197  0.44277  1.0000
  C   C62       1.0  0.30979  0.35933  0.02376  1.0000
  H   H71       1.0  0.09151  0.51113  0.50912  1.0000
  S   S15       1.0  0.17503  0.51071  0.50679  1.0000
  H   H72       1.0  0.11349  0.50419  0.91871  1.0000
  Fe  Fe7       1.0  0.21477  0.51828  0.57956  1.0000
  S   S16       1.0  0.20534  0.47172  0.64464  1.0000
  S   S17       1.0  0.20006  0.58381  0.59391  1.0000
  H   H73       1.0  0.31938  0.42461  0.71824  1.0000
  S   S18       1.0  0.19148  0.44165  0.95882  1.0000
  S   S19       1.0  0.24982  0.53312  0.88247  1.0000
  H   H74       1.0  0.25086  0.54162  0.68319  1.0000
  Fe  Fe8       1.0  0.22399  0.50180  0.95650  1.0000
  H   H75       1.0  0.26774  0.56535  0.77711  1.0000
  C   C63       1.0  0.37088  0.37657  0.97006  1.0000
  C   C64       1.0  0.05725  0.56464  0.53169  1.0000
  C   C65       1.0  0.10819  0.50847  0.87552  1.0000
  C   C66       1.0  0.06265  0.52290  0.52446  1.0000
  H   H76       1.0  0.37199  0.69006  0.59213  1.0000
  H   H77       1.0  0.19894  0.46603  0.84441  1.0000
  C   C67       1.0  0.13079  0.53732  0.84679  1.0000
  H   H78       1.0  0.12327  0.46819  0.68357  1.0000
  C   C68       1.0  0.21571  0.49014  0.71068  1.0000
  C   C69       1.0  0.20079  0.46908  0.75625  1.0000
  C   C70       1.0  0.21026  0.48253  0.80944  1.0000
  C   C71       1.0  0.23468  0.51709  0.81700  1.0000
  C   C72       1.0  0.24882  0.53857  0.77139  1.0000
  C   C73       1.0  0.23920  0.52524  0.71827  1.0000
  H   H79       1.0  0.18214  0.44218  0.75039  1.0000
  C   C74       1.0  0.07277  0.48961  0.79254  1.0000
  H   H80       1.0  0.33485  0.43729  0.87128  1.0000
  N   N3        1.0  0.08884  0.52234  0.70225  1.0000
  H   H81       1.0  0.38742  0.39756  0.94409  1.0000
  C   C75       1.0  0.11770  0.55106  0.67515  1.0000
  C   C76       1.0  0.12504  0.54216  0.79066  1.0000
  H   H82       1.0  0.15015  0.54137  0.67929  1.0000
  H   H83       1.0  0.24622  0.40384  0.78587  1.0000
  C   C77       1.0  0.33146  0.38650  0.99069  1.0000
  H   H84       1.0  0.31790  0.41520  0.98119  1.0000
  H   H85       1.0  0.04993  0.47055  0.77332  1.0000
  H   H86       1.0  0.04145  0.56676  0.71605  1.0000
  H   H87       1.0  0.14464  0.56421  0.77083  1.0000
  N   N4        1.0  0.31108  0.40438  0.80156  1.0000
  H   H88       1.0  0.29238  0.45914  0.76236  1.0000
  H   H89       1.0  0.29323  0.40323  0.88778  1.0000
  C   C78       1.0  0.09357  0.48243  0.67352  1.0000
  H   H90       1.0  0.11432  0.58246  0.69204  1.0000
  H   H91       1.0  0.06859  0.46078  0.68414  1.0000
  C   C79       1.0  0.37904  0.37519  0.76476  1.0000
  S   S20       1.0  0.27150  0.53010  0.52879  1.0000
  S   S21       1.0  0.30799  0.63519  0.56340  1.0000
  H   H92       1.0  0.28290  0.44956  0.85594  1.0000
  C   C80       1.0  0.04657  0.53715  0.69432  1.0000
  H   H93       1.0  0.26396  0.35941  0.81768  1.0000
  H   H94       1.0  0.15403  0.55519  0.86775  1.0000
  C   C81       1.0  0.30537  0.42431  0.85642  1.0000
  C   C82       1.0  0.09585  0.51820  0.76167  1.0000
  H   H95       1.0  0.09333  0.48515  0.62807  1.0000
  H   H96       1.0  0.06242  0.46177  0.87115  1.0000
  H   H97       1.0  0.34648  0.45443  0.76963  1.0000
  C   C83       1.0  0.34508  0.37482  0.80268  1.0000
  C   C84       1.0  0.27261  0.38275  0.78730  1.0000
  H   H98       1.0  0.11234  0.55289  0.63030  1.0000
  H   H99       1.0  0.42751  0.65186  0.53447  1.0000
  Fe  Fe9       1.0  0.16326  0.57692  0.51746  1.0000
  H   H100      1.0  0.03473  0.46374  0.52956  1.0000
  C   C85       1.0  0.31794  0.43687  0.76112  1.0000
  C   C86       1.0  0.45675  0.66734  0.52832  1.0000
  C   C87       1.0  0.07930  0.48461  0.84848  1.0000
  S   S22       1.0  0.09738  0.59923  0.51662  1.0000
  Fe  Fe10      1.0  0.25415  0.59588  0.53719  1.0000
  H   H101      1.0  0.38201  0.39714  0.73281  1.0000
  C   C88       1.0  0.31936  0.68440  0.54070  1.0000
  H   H102      1.0  0.04054  0.54144  0.65016  1.0000
  H   H103      1.0  0.27566  0.36729  0.74637  1.0000
  S   S23       1.0  0.17772  0.53416  0.01082  1.0000
  H   H104      1.0  0.08884  0.55025  0.00182  1.0000
  H   H105      1.0  0.04007  0.60734  0.01415  1.0000
  N   N5        1.0  0.39485  0.72756  0.34618  1.0000
  H   H106      1.0  0.38095  0.79078  0.33574  1.0000
  H   H107      1.0  0.34507  0.75626  0.30485  1.0000
  Fe  Fe11      1.0  0.41647  0.83793  0.50567  1.0000
  S   S24       1.0  0.35700  0.80933  0.47774  1.0000
  S   S25       1.0  0.48886  0.82587  0.15376  1.0000
  S   S26       1.0  0.44309  0.88682  0.45258  1.0000
  Fe  Fe12      1.0  0.53003  0.84295  0.08211  1.0000
  Fe  Fe13      1.0  0.50271  0.85451  0.46065  1.0000
  H   H108      1.0  0.48496  0.92591  0.27633  1.0000
  C   C89       1.0  0.52820  0.02054  0.35685  1.0000
  C   C90       1.0  0.42340  0.73919  0.39060  1.0000
  C   C91       1.0  0.36518  0.76100  0.34063  1.0000
  H   H109      1.0  0.44600  0.71488  0.39765  1.0000
  H   H110      1.0  0.34462  0.76381  0.37766  1.0000
  C   C92       1.0  0.47895  0.83117  0.26490  1.0000
  C   C93       1.0  0.49252  0.83615  0.31876  1.0000
  H   H111      1.0  0.44659  0.82655  0.25748  1.0000
  H   H112      1.0  0.47070  0.83522  0.35282  1.0000
  C   C94       1.0  0.51349  0.93627  0.19932  1.0000
  C   C95       1.0  0.50702  0.83254  0.22046  1.0000
  C   C96       1.0  0.34209  0.76190  0.50388  1.0000
  H   H113      1.0  0.40080  0.72071  0.25756  1.0000
  C   C97       1.0  0.30706  0.74213  0.48356  1.0000
  C   C98       1.0  0.41989  0.72360  0.29459  1.0000
  H   H114      1.0  0.49591  0.96190  0.41655  1.0000
  H   H115      1.0  0.43978  0.75071  0.28775  1.0000
  C   C99       1.0  0.50931  0.94264  0.25605  1.0000
  H   H116      1.0  0.44102  0.76726  0.38104  1.0000
  C   C100      1.0  0.52057  0.01100  0.03055  1.0000
  H   H117      1.0  0.49278  0.91557  0.17824  1.0000
  H   H118      1.0  0.44024  0.69667  0.29529  1.0000
  H   H119      1.0  0.46803  0.96477  0.35468  1.0000
  S   S27       1.0  0.50842  0.89528  0.03374  1.0000
  H   H120      1.0  0.40657  0.74618  0.42981  1.0000
  H   H121      1.0  0.50911  0.98235  0.04501  1.0000
  C   C101      1.0  0.29578  0.70338  0.50174  1.0000
  C   C102      1.0  0.49787  0.95532  0.37152  1.0000
  H   H122      1.0  0.28861  0.75675  0.45360  1.0000
  S   S28       1.0  0.47520  0.80286  0.50676  1.0000
  H   H123      1.0  0.50082  0.92185  0.36674  1.0000
  C   C103      1.0  0.47507  0.99552  0.75781  1.0000
  S   S29       1.0  0.47432  0.85932  0.89479  1.0000
  C   C104      1.0  0.49673  0.95777  0.67606  1.0000
  H   H124      1.0  0.51547  0.73787  0.59125  1.0000
  S   S30       1.0  0.42742  0.87223  0.58496  1.0000
  H   H125      1.0  0.45348  0.93803  0.86473  1.0000
  Fe  Fe14      1.0  0.48855  0.84065  0.58221  1.0000
  C   C105      1.0  0.50173  0.97305  0.79079  1.0000
  C   C106      1.0  0.51179  0.82792  0.71729  1.0000
  C   C107      1.0  0.46244  0.85491  0.78447  1.0000
  C   C108      1.0  0.47361  0.84541  0.72978  1.0000
  H   H126      1.0  0.43258  0.86785  0.79400  1.0000
  H   H127      1.0  0.45238  0.85101  0.69752  1.0000
  S   S31       1.0  0.52626  0.81486  0.64926  1.0000
  C   C109      1.0  0.52312  0.93512  0.70708  1.0000
  N   N6        1.0  0.50253  0.98075  0.85086  1.0000
  C   C110      1.0  0.48949  0.84729  0.82680  1.0000
  H   H128      1.0  0.43684  0.98936  0.86125  1.0000
  H   H129      1.0  0.46184  0.97262  0.92118  1.0000
  C   C111      1.0  0.46196  0.96991  0.87555  1.0000
  C   C112      1.0  0.47272  0.98789  0.70130  1.0000
  H   H130      1.0  0.52835  0.92396  0.87463  1.0000
  C   C113      1.0  0.52563  0.94234  0.76363  1.0000
  Fe  Fe15      1.0  0.52167  0.85550  0.96003  1.0000
  C   C114      1.0  0.52802  0.83053  0.81430  1.0000
  H   H131      1.0  0.45052  0.70304  0.60275  1.0000
  C   C115      1.0  0.36564  0.74287  0.54275  1.0000
  H   H132      1.0  0.39249  0.75795  0.55892  1.0000
  C   C116      1.0  0.50754  0.71598  0.55962  1.0000
  H   H133      1.0  0.49414  0.95128  0.63253  1.0000
  C   C117      1.0  0.35410  0.70439  0.56132  1.0000
  S   S32       1.0  0.45040  0.98578  0.54139  1.0000
  S   S33       1.0  0.52092  0.88939  0.53569  1.0000
  Fe  Fe16      1.0  0.45923  0.91820  0.53164  1.0000
  H   H134      1.0  0.45139  0.00450  0.67684  1.0000
  H   H135      1.0  0.45496  0.01834  0.77581  1.0000
  C   C118      1.0  0.46982  0.69604  0.56687  1.0000
  C   C119      1.0  0.53173  0.00336  0.51710  1.0000
  C   C120      1.0  0.49154  0.01785  0.52295  1.0000
  C   C121      1.0  0.51096  0.02424  0.86288  1.0000
  H   H136      1.0  0.58744  0.26528  0.32388  1.0000
  C   C122      1.0  0.65755  0.35686  0.34404  1.0000
  S   S34       1.0  0.57272  0.28860  0.48461  1.0000
  C   C123      1.0  0.56824  0.26321  0.28840  1.0000
  H   H137      1.0  0.57631  0.18355  0.17680  1.0000
  S   S35       1.0  0.69278  0.28404  0.45841  1.0000
  S   S36       1.0  0.60755  0.20927  0.41250  1.0000
  C   C124      1.0  0.58589  0.26608  0.23561  1.0000
  H   H138      1.0  0.61881  0.26979  0.23050  1.0000
  H   H139      1.0  0.73149  0.33783  0.30535  1.0000
  Fe  Fe17      1.0  0.58806  0.17159  0.48401  1.0000
  H   H140      1.0  0.60304  0.13740  0.19142  1.0000
  H   H141      1.0  0.56294  0.08587  0.10922  1.0000
  Fe  Fe18      1.0  0.63154  0.25363  0.47554  1.0000
  C   C125      1.0  0.74639  0.34185  0.49658  1.0000
  H   H142      1.0  0.65673  0.33750  0.30608  1.0000
  C   C126      1.0  0.55661  0.07118  0.49675  1.0000
  H   H143      1.0  0.59228  0.15055  0.12231  1.0000
  Fe  Fe19      1.0  0.54763  0.24125  0.42703  1.0000
  S   S37       1.0  0.58465  0.26440  0.12390  1.0000
  H   H144      1.0  0.76733  0.33086  0.46462  1.0000
  C   C127      1.0  0.56118  0.26364  0.18941  1.0000
  H   H145      1.0  0.55595  0.03848  0.34533  1.0000
  H   H146      1.0  0.56520  0.07009  0.17893  1.0000
  C   C128      1.0  0.57956  0.15099  0.16517  1.0000
  S   S38       1.0  0.59841  0.10395  0.48425  1.0000
  Fe  Fe20      1.0  0.54562  0.25061  0.05078  1.0000
  H   H147      1.0  0.65788  0.33544  0.37863  1.0000
  C   C129      1.0  0.54645  0.08695  0.14969  1.0000
  H   H148      1.0  0.56740  0.16820  0.26641  1.0000
  C   C130      1.0  0.70757  0.32363  0.50347  1.0000
  C   C131      1.0  0.73122  0.35877  0.34176  1.0000
  H   H149      1.0  0.73281  0.33974  0.37873  1.0000
  C   C132      1.0  0.56416  0.02995  0.50406  1.0000
  N   N7        1.0  0.53954  0.12924  0.16947  1.0000
  C   C133      1.0  0.53962  0.15036  0.27070  1.0000
  H   H150      1.0  0.53504  0.16723  0.35651  1.0000
  N   N8        1.0  0.67653  0.34196  0.76778  1.0000
  S   S39       1.0  0.61787  0.21273  0.54618  1.0000
  H   H151      1.0  0.58625  0.32960  0.62242  1.0000
  C   C134      1.0  0.59190  0.12409  0.66359  1.0000
  C   C135      1.0  0.57851  0.24215  0.79255  1.0000
  C   C136      1.0  0.53850  0.25697  0.78974  1.0000
  C   C137      1.0  0.58343  0.23924  0.69305  1.0000
  C   C138      1.0  0.60096  0.23329  0.74413  1.0000
  H   H152      1.0  0.60124  0.23335  0.65602  1.0000
  H   H153      1.0  0.63192  0.22183  0.74612  1.0000
  C   C139      1.0  0.54324  0.25357  0.69023  1.0000
  H   H154      1.0  0.53973  0.03442  0.84164  1.0000
  H   H155      1.0  0.65305  0.32084  0.66359  1.0000
  H   H156      1.0  0.58305  0.14624  0.76386  1.0000
  S   S40       1.0  0.54391  0.29234  0.97989  1.0000
  H   H157      1.0  0.60947  0.10472  0.69131  1.0000
  H   H158      1.0  0.68749  0.28345  0.72878  1.0000
  S   S41       1.0  0.60101  0.23446  0.85605  1.0000
  H   H159      1.0  0.65083  0.32407  0.55061  1.0000
  H   H160      1.0  0.71848  0.29427  0.78699  1.0000
  H   H161      1.0  0.66497  0.28187  0.79647  1.0000
  C   C140      1.0  0.68097  0.33763  0.54547  1.0000
  H   H162      1.0  0.55037  0.15505  0.85327  1.0000
  H   H163      1.0  0.59837  0.15646  0.67373  1.0000
  Fe  Fe21      1.0  0.55517  0.23738  0.92672  1.0000
  H   H164      1.0  0.60477  0.11873  0.62121  1.0000
  Fe  Fe22      1.0  0.55689  0.24425  0.55045  1.0000
  C   C141      1.0  0.68742  0.29855  0.76999  1.0000
  C   C142      1.0  0.55730  0.35371  0.69592  1.0000
  C   C143      1.0  0.54944  0.08602  0.99437  1.0000
  C   C144      1.0  0.55127  0.13692  0.76775  1.0000
  H   H165      1.0  0.55855  0.06543  0.60963  1.0000
  H   H166      1.0  0.56081  0.11437  0.97903  1.0000
  C   C145      1.0  0.63521  0.34571  0.74427  1.0000
  H   H167      1.0  0.60941  0.05849  0.99293  1.0000
  C   C146      1.0  0.54134  0.07223  0.64862  1.0000
  H   H168      1.0  0.65910  0.34285  0.85382  1.0000
  N   N9        1.0  0.54712  0.11503  0.66703  1.0000
  H   H169      1.0  0.71096  0.35755  0.84006  1.0000
  C   C147      1.0  0.57695  0.05405  0.00167  1.0000
  H   H170      1.0  0.55238  0.05092  0.67964  1.0000
  H   H171      1.0  0.54130  0.14013  0.58671  1.0000
  S   S42       1.0  0.56392  0.19716  0.99795  1.0000
  C   C148      1.0  0.59058  0.33896  0.66481  1.0000
  C   C149      1.0  0.62873  0.33417  0.68878  1.0000
  H   H172      1.0  0.71245  0.34795  0.69201  1.0000
  Fe  Fe23      1.0  0.82963  0.54565  0.13645  1.0000
  S   S43       1.0  0.85577  0.60787  0.15057  1.0000
  S   S44       1.0  0.82794  0.49802  0.20117  1.0000
  H   H173      1.0  0.96165  0.48342  0.19092  1.0000
  H   H174      1.0  0.74946  0.44579  0.36568  1.0000
  S   S45       1.0  0.79849  0.57096  0.44074  1.0000
  Fe  Fe24      1.0  0.88937  0.59683  0.07014  1.0000
  H   H175      1.0  0.88334  0.57425  0.38840  1.0000
  S   S46       1.0  0.95668  0.61160  0.05493  1.0000
  C   C150      1.0  0.91474  0.58490  0.39848  1.0000
  C   C151      1.0  0.98513  0.56791  0.41211  1.0000
  C   C152      1.0  0.69539  0.41151  0.39350  1.0000
  C   C153      1.0  0.03110  0.57738  0.02718  1.0000
  C   C154      1.0  0.72861  0.46759  0.44393  1.0000
  H   H176      1.0  0.99866  0.46977  0.07158  1.0000
  C   C155      1.0  0.81885  0.51774  0.26777  1.0000
  C   C156      1.0  0.82577  0.49367  0.31322  1.0000
  C   C157      1.0  0.81932  0.50947  0.36669  1.0000
  C   C158      1.0  0.80545  0.54923  0.37473  1.0000
  C   C159      1.0  0.79839  0.57310  0.32924  1.0000
  C   C160      1.0  0.80519  0.55748  0.27591  1.0000
  H   H177      1.0  0.83659  0.46297  0.30699  1.0000
  H   H178      1.0  0.82502  0.49088  0.40147  1.0000
  H   H179      1.0  0.78781  0.60392  0.33523  1.0000
  H   H180      1.0  0.79943  0.57612  0.24108  1.0000
  C   C161      1.0  0.97937  0.50335  0.32591  1.0000
  H   H181      1.0  0.00793  0.54381  0.41948  1.0000
  H   H182      1.0  0.95388  0.49456  0.43455  1.0000
  H   H183      1.0  0.00617  0.46180  0.26582  1.0000
  H   H184      1.0  0.90046  0.56756  0.29855  1.0000
  H   H185      1.0  0.95054  0.52708  0.08564  1.0000
  C   C162      1.0  0.92466  0.54543  0.29363  1.0000
  H   H186      1.0  0.68892  0.38925  0.25649  1.0000
  N   N10       1.0  0.69394  0.38435  0.34435  1.0000
  N   N11       1.0  0.94505  0.55144  0.39380  1.0000
  C   C163      1.0  0.93116  0.51939  0.43171  1.0000
  H   H187      1.0  0.66695  0.43060  0.29631  1.0000
  C   C164      1.0  0.72636  0.44188  0.39774  1.0000
  H   H188      1.0  0.99892  0.49253  0.35760  1.0000
  H   H189      1.0  0.92616  0.53154  0.47421  1.0000
  S   S47       1.0  0.86683  0.53313  0.05955  1.0000
  C   C165      1.0  0.66717  0.40829  0.43867  1.0000
  H   H190      1.0  0.90963  0.53642  0.20865  1.0000
  C   C166      1.0  0.99158  0.57097  0.04971  1.0000
  H   H191      1.0  0.91201  0.59761  0.44112  1.0000
  C   C167      1.0  0.95881  0.49764  0.23134  1.0000
  C   C168      1.0  0.66971  0.43428  0.48456  1.0000
  H   H192      1.0  0.98185  0.58526  0.45156  1.0000
  H   H193      1.0  0.90164  0.50554  0.41844  1.0000
  S   S48       1.0  0.76040  0.67872  0.13048  1.0000
  S   S49       1.0  0.77485  0.56686  0.09159  1.0000
  C   C169      1.0  0.69283  0.40868  0.29395  1.0000
  H   H194      1.0  0.72166  0.42624  0.28670  1.0000
  C   C170      1.0  0.70049  0.46365  0.48735  1.0000
  H   H195      1.0  0.92332  0.61029  0.37122  1.0000
  H   H196      1.0  0.99876  0.58881  0.38144  1.0000
  H   H197      1.0  0.75251  0.49054  0.44644  1.0000
  H   H198      1.0  0.75998  0.37707  0.33962  1.0000
  C   C171      1.0  0.98376  0.48555  0.27352  1.0000
  Fe  Fe25      1.0  0.80332  0.62883  0.09962  1.0000
  H   H199      1.0  0.64343  0.38535  0.44032  1.0000
  C   C172      1.0  0.98037  0.53221  0.06672  1.0000
  H   H200      1.0  0.62828  0.37414  0.34649  1.0000
  C   C173      1.0  0.92955  0.52763  0.24134  1.0000
  C   C174      1.0  0.94964  0.53384  0.33762  1.0000
  C   C175      1.0  0.00789  0.49984  0.05932  1.0000
  H   H201      1.0  0.60421  0.67491  0.47222  1.0000
  H   H202      1.0  0.53737  0.67000  0.43833  1.0000
  S   S50       1.0  0.83958  0.62408  0.02005  1.0000
  H   H203      1.0  0.73708  0.62690  0.01668  1.0000
  H   H204      1.0  0.66607  0.63872  0.03399  1.0000
  Fe  Fe26      1.0  0.81475  0.56058  0.01567  1.0000
  H   H205      1.0  0.02289  0.51559  0.70952  1.0000
  C   C176      1.0  0.66395  0.64735  0.99025  1.0000
  S   S51       1.0  0.79148  0.52770  0.94067  1.0000
  C   C177      1.0  0.93520  0.52846  0.83156  1.0000
  H   H206      1.0  0.01428  0.61148  0.55593  1.0000
  C   C178      1.0  0.93184  0.53629  0.71603  1.0000
  C   C179      1.0  0.66755  0.67679  0.82119  1.0000
  C   C180      1.0  0.99164  0.51047  0.55343  1.0000
  H   H207      1.0  0.78257  0.49373  0.83302  1.0000
  Fe  Fe27      1.0  0.82828  0.55149  0.63788  1.0000
  S   S52       1.0  0.84819  0.48767  0.65036  1.0000
  S   S53       1.0  0.82806  0.59856  0.70604  1.0000
  H   H208      1.0  0.79616  0.52112  0.74068  1.0000
  H   H209      1.0  0.83917  0.63246  0.81386  1.0000
  H   H210      1.0  0.97966  0.50513  0.95178  1.0000
  C   C181      1.0  0.73224  0.38743  0.57403  1.0000
  H   H211      1.0  0.92858  0.55583  0.96895  1.0000
  H   H212      1.0  0.92949  0.53912  0.67201  1.0000
  S   S54       1.0  0.95165  0.47530  0.56572  1.0000
  C   C182      1.0  0.80369  0.54735  0.87597  1.0000
  C   C183      1.0  0.81983  0.58643  0.87046  1.0000
  C   C184      1.0  0.82720  0.60203  0.81810  1.0000
  C   C185      1.0  0.81908  0.57839  0.77115  1.0000
  C   C186      1.0  0.80325  0.53925  0.77670  1.0000
  C   C187      1.0  0.79541  0.52384  0.82902  1.0000
  H   H213      1.0  0.82590  0.60500  0.90628  1.0000
  H   H214      1.0  0.95675  0.56386  0.57544  1.0000
  H   H215      1.0  0.95139  0.58490  0.91583  1.0000
  H   H216      1.0  0.63122  0.64390  0.97867  1.0000
  H   H217      1.0  0.74556  0.65991  0.95984  1.0000
  H   H218      1.0  0.91152  0.46205  0.89142  1.0000
  H   H219      1.0  0.64955  0.57236  0.94549  1.0000
  C   C188      1.0  0.70760  0.36305  0.73281  1.0000
  C   C189      1.0  0.68049  0.57941  0.96179  1.0000
  H   H220      1.0  0.67249  0.38093  0.61229  1.0000
  C   C190      1.0  0.71207  0.62031  0.79941  1.0000
  C   C191      1.0  0.66710  0.66682  0.87664  1.0000
  H   H221      1.0  0.94299  0.47243  0.71094  1.0000
  H   H222      1.0  0.91892  0.59898  0.73300  1.0000
  H   H223      1.0  0.87391  0.50144  0.89513  1.0000
  C   C192      1.0  0.98604  0.55224  0.56090  1.0000
  Fe  Fe28      1.0  0.88560  0.49593  0.57289  1.0000
  C   C193      1.0  0.97753  0.50878  0.90671  1.0000
  H   H224      1.0  0.70282  0.55823  0.94142  1.0000
  Fe  Fe29      1.0  0.79638  0.47043  0.59496  1.0000
  H   H225      1.0  0.89686  0.57303  0.91611  1.0000
  S   S55       1.0  0.86932  0.56101  0.56423  1.0000
  C   C194      1.0  0.92792  0.56100  0.92409  1.0000
  S   S56       1.0  0.77378  0.53418  0.58821  1.0000
  H   H226      1.0  0.68034  0.57159  0.00598  1.0000
  H   H227      1.0  0.92204  0.59372  0.83153  1.0000
  C   C195      1.0  0.69008  0.65367  0.78271  1.0000
  C   C196      1.0  0.92778  0.56643  0.80743  1.0000
  N   N12       1.0  0.93633  0.52320  0.89166  1.0000
  H   H228      1.0  0.69089  0.66181  0.73992  1.0000
  H   H229      1.0  0.94695  0.46489  0.81035  1.0000
  H   H230      1.0  0.69835  0.39485  0.72526  1.0000
  C   C197      1.0  0.90502  0.49279  0.90865  1.0000
  C   C198      1.0  0.92618  0.57003  0.75051  1.0000
  H   H231      1.0  0.72961  0.58420  0.86556  1.0000
  C   C199      1.0  0.94138  0.49474  0.79508  1.0000
  H   H232      1.0  0.78875  0.38744  0.52640  1.0000
  C   C200      1.0  0.93942  0.49869  0.73821  1.0000
  H   H233      1.0  0.90312  0.48982  0.95404  1.0000
  H   H234      1.0  0.70306  0.48288  0.52375  1.0000
  H   H235      1.0  0.60169  0.36783  0.81834  1.0000
  C   C201      1.0  0.71153  0.60990  0.85460  1.0000
  H   H236      1.0  0.64847  0.43078  0.51906  1.0000
  S   S57       1.0  0.74728  0.42555  0.62108  1.0000
  C   C202      1.0  0.73429  0.62938  0.97147  1.0000
  C   C203      1.0  0.68912  0.63279  0.89503  1.0000
  H   H237      1.0  0.73022  0.60274  0.76953  1.0000
  N   N13       1.0  0.69155  0.62259  0.95368  1.0000
  C   C204      1.0  0.75862  0.37387  0.53155  1.0000
  C   C205      1.0  0.03014  0.49598  0.53559  1.0000
  H   H238      1.0  0.67238  0.67996  0.98940  1.0000
  C   C206      1.0  0.67924  0.35950  0.82422  1.0000
  H   H239      1.0  0.98507  0.47883  0.88766  1.0000
  H   H240      1.0  0.00201  0.53065  0.89419  1.0000
  H   H241      1.0  0.75591  0.60715  0.95215  1.0000
  H   H242      1.0  0.67071  0.39211  0.82547  1.0000
  C   C207      1.0  0.01878  0.57921  0.55008  1.0000
  H   H243      1.0  0.60670  0.68350  0.54491  1.0000
  H   H244      1.0  0.73844  0.36422  0.75152  1.0000
  C   C208      1.0  0.69334  0.36947  0.58059  1.0000
  H   H245      1.0  0.64972  0.68665  0.90424  1.0000
  H   H246      1.0  0.53572  0.37396  0.77568  1.0000
  C   C209      1.0  0.56207  0.36379  0.75115  1.0000
  S   S58       1.0  0.83580  0.47194  0.51787  1.0000
  C   C210      1.0  0.60039  0.35997  0.77525  1.0000
  Fe  Fe30      1.0  0.81679  0.53703  0.51520  1.0000
  H   H247      1.0  0.70811  0.80620  0.16746  1.0000
  S   S59       1.0  0.59594  0.86416  0.08257  1.0000
  H   H248      1.0  0.59667  0.99549  0.17312  1.0000
  H   H249      1.0  0.60200  0.76698  0.44184  1.0000
  H   H250      1.0  0.59004  0.00815  0.27247  1.0000
  C   C211      1.0  0.56239  0.84370  0.28390  1.0000
  C   C212      1.0  0.73014  0.81634  0.13658  1.0000
  H   H251      1.0  0.59475  0.84840  0.29117  1.0000
  H   H252      1.0  0.57051  0.84002  0.19591  1.0000
  H   H253      1.0  0.77706  0.77548  0.16146  1.0000
  C   C213      1.0  0.79714  0.81104  0.09291  1.0000
  C   C214      1.0  0.56796  0.98817  0.25326  1.0000
  H   H254      1.0  0.68774  0.85624  0.10279  1.0000
  C   C215      1.0  0.67100  0.74940  0.07099  1.0000
  H   H255      1.0  0.79482  0.91854  0.01804  1.0000
  H   H256      1.0  0.64110  0.76024  0.08477  1.0000
  H   H257      1.0  0.57682  0.92977  0.36032  1.0000
  C   C216      1.0  0.69351  0.72366  0.10412  1.0000
  C   C217      1.0  0.76904  0.79903  0.13336  1.0000
  C   C218      1.0  0.57405  0.74786  0.44846  1.0000
  C   C219      1.0  0.57202  0.98125  0.19657  1.0000
  N   N14       1.0  0.57319  0.72886  0.50309  1.0000
  C   C220      1.0  0.53642  0.96907  0.28482  1.0000
  C   C221      1.0  0.54874  0.83909  0.22999  1.0000
  C   C222      1.0  0.78634  0.84022  0.05529  1.0000
  C   C223      1.0  0.73223  0.70916  0.08651  1.0000
  H   H258      1.0  0.68094  0.71504  0.14365  1.0000
  N   N15       1.0  0.73576  0.88828  0.01565  1.0000
  Fe  Fe31      1.0  0.57453  0.91313  0.02753  1.0000
  C   C224      1.0  0.71878  0.84515  0.09873  1.0000
  H   H259      1.0  0.59881  0.97973  0.35758  1.0000
  C   C225      1.0  0.74655  0.85777  0.05646  1.0000
  C   C226      1.0  0.60683  0.69886  0.50471  1.0000
  H   H260      1.0  0.63757  0.71338  0.49868  1.0000
  C   C227      1.0  0.74860  0.72097  0.03584  1.0000
  H   H261      1.0  0.82723  0.79708  0.09032  1.0000
  H   H262      1.0  0.59531  0.01870  0.50068  1.0000
  H   H263      1.0  0.54711  0.76799  0.44396  1.0000
  S   S60       1.0  0.55210  0.84782  0.39525  1.0000
  H   H264      1.0  0.56899  0.96525  0.41628  1.0000
  C   C228      1.0  0.57112  0.96234  0.37074  1.0000
  H   H265      1.0  0.75693  0.93780  0.06630  1.0000
  H   H266      1.0  0.80931  0.84859  0.02489  1.0000
  H   H267      1.0  0.57391  0.72534  0.41401  1.0000
  H   H268      1.0  0.68406  0.91589  0.05953  1.0000
  S   S61       1.0  0.59833  0.97752  0.03063  1.0000
  C   C229      1.0  0.54476  0.95544  0.16972  1.0000
  H   H269      1.0  0.54815  0.94985  0.12593  1.0000
  C   C230      1.0  0.76149  0.92499  0.02396  1.0000
  C   C231      1.0  0.56268  0.01647  0.01996  1.0000
  C   C232      1.0  0.53432  0.84214  0.32826  1.0000
  C   C233      1.0  0.68732  0.76099  0.02017  1.0000
  H   H270      1.0  0.77889  0.71085  0.02268  1.0000
  C   C234      1.0  0.69200  0.90091  0.01937  1.0000
  N   N16       1.0  0.53317  0.97653  0.34489  1.0000
  C   C235      1.0  0.53321  0.70808  0.51259  1.0000
  C   C236      1.0  0.53902  0.82061  0.75960  1.0000
  S   S62       1.0  0.58653  0.87726  0.95002  1.0000
  H   H271      1.0  0.73229  0.89227  0.92743  1.0000
  H   H272      1.0  0.73892  0.75555  0.96340  1.0000
  H   H273      1.0  0.56859  0.80705  0.75011  1.0000
  H   H274      1.0  0.72767  0.84205  0.95327  1.0000
  C   C237      1.0  0.53431  0.95706  0.87862  1.0000
  H   H275      1.0  0.54560  0.92252  0.78521  1.0000
  S   S63       1.0  0.65984  0.79222  0.97652  1.0000
  Fe  Fe32      1.0  0.60256  0.82620  0.00501  1.0000
  H   H276      1.0  0.56569  0.96365  0.86195  1.0000
  H   H277      1.0  0.55822  0.78538  0.54472  1.0000
  H   H278      1.0  0.77672  0.86682  0.94974  1.0000
  H   H279      1.0  0.65072  0.70299  0.80815  1.0000
  C   C238      1.0  0.74358  0.87173  0.95924  1.0000
  S   S64       1.0  0.53807  0.80120  0.00841  1.0000
  H   H280      1.0  0.58360  0.74934  0.58666  1.0000
  H   H281      1.0  0.54896  0.82446  0.84683  1.0000
  H   H282      1.0  0.53464  0.96385  0.92356  1.0000
  C   C239      1.0  0.72612  0.74665  0.00267  1.0000
  H   H283      1.0  0.68439  0.92318  0.98758  1.0000
  H   H284      1.0  0.75378  0.94906  0.99473  1.0000
  H   H285      1.0  0.53808  0.97191  0.52367  1.0000
  H   H286      1.0  0.54071  0.91074  0.68745  1.0000
  H   H287      1.0  0.61192  0.77670  0.53603  1.0000
  C   C240      1.0  0.58197  0.76130  0.54447  1.0000
  H   H288      1.0  0.67115  0.87452  0.01294  1.0000
