data_image0
_chemical_formula_structural       HCHC9H4SHFeSHCH2CH3C3HCH2SH2NHCHSFeHC2NFeHSFeS2CHS2HSCHC6H4CHFeHC2NC5H9SHFeHCHFeHSCHCHSC2H3FeSHSH2SCH2CH4C4H5S2H2SC2H2NCSCNCFeC3HC5H9CHCHCSHCH2CFeH2SCHSC2HCHSH2CH2CHFeHSCFeCSC2H3SH2C2HC6H8C2H3NC2HFeHCH2C2SHCH3CHC2HFeS2CFeS3C5H4CHCH2C3H6NC4H2FeHCHC4H3CHC2HCH3C2H2C2H3C3H2FeS2FeS2FeHFeS2CH2SCH3C6H3SHCHNH3C3H2FeHC5HC2H3NHC2HCH2CH2FeS2CHFeCHCSHCHSCHC4H9CH2CHCHNFeNC3HCH2CHCHCSCH2CH2C3H2SHC3H2C2H3C2SFeSHSC6H4NC4H3C2HSHC3H5FeCFeHFeCSH5SCHCH2CHC3HSH2C2HCHCNFeHS2CSFeHFeSH3CHNC7H2CH4CSH2SHCH2CH3C2HC2HCH3CHSNHC3HNHC2H5CH2C2SC2H2C2H2C2HFeC2HS2H2
_chemical_formula_sum              "H288 C240 S64 Fe32 N16"
_cell_length_a       28.5831
_cell_length_b       28.3483
_cell_length_c       31.1306
_cell_angle_alpha    90.7084
_cell_angle_beta     89.3429
_cell_angle_gamma    90.4866

_space_group_name_H-M_alt    "P 1"
_space_group_IT_number       1

loop_
  _space_group_symop_operation_xyz
  'x, y, z'

loop_
  _atom_site_type_symbol
  _atom_site_label
  _atom_site_symmetry_multiplicity
  _atom_site_fract_x
  _atom_site_fract_y
  _atom_site_fract_z
  _atom_site_occupancy
  H   H1        1.0  0.24520  0.31578  0.29346  1.0000
  C   C1        1.0  0.39751  0.49445  0.04609  1.0000
  H   H2        1.0  0.12647  0.34757  0.26081  1.0000
  C   C2        1.0  0.20665  0.32088  0.29460  1.0000
  C   C3        1.0  0.22298  0.38787  0.17246  1.0000
  C   C4        1.0  0.47824  0.47996  0.02591  1.0000
  C   C5        1.0  0.07258  0.42002  0.23514  1.0000
  C   C6        1.0  0.08306  0.41867  0.19108  1.0000
  C   C7        1.0  0.11693  0.44939  0.17365  1.0000
  C   C8        1.0  0.14045  0.48165  0.20021  1.0000
  C   C9        1.0  0.13032  0.48256  0.24436  1.0000
  C   C10       1.0  0.09650  0.45189  0.26182  1.0000
  H   H3        1.0  0.06494  0.39380  0.17037  1.0000
  H   H4        1.0  0.12461  0.44815  0.13968  1.0000
  H   H5        1.0  0.14875  0.50709  0.26511  1.0000
  H   H6        1.0  0.08825  0.45372  0.29577  1.0000
  S   S1        1.0  0.03007  0.38118  0.25636  1.0000
  H   H7        1.0  0.22931  0.25263  0.18680  1.0000
  Fe  Fe1       1.0  0.25261  0.46031  0.03829  1.0000
  S   S2        1.0  0.29163  0.39246  0.02604  1.0000
  H   H8        1.0  0.35539  0.32062  0.99709  1.0000
  C   C11       1.0  0.20323  0.36809  0.20944  1.0000
  H   H9        1.0  0.03742  0.47551  0.13086  1.0000
  H   H10       1.0  0.38429  0.46341  0.02774  1.0000
  C   C12       1.0  0.24609  0.31069  0.14737  1.0000
  H   H11       1.0  0.11511  0.29605  0.22898  1.0000
  H   H12       1.0  0.25937  0.37480  0.11278  1.0000
  H   H13       1.0  0.18656  0.39189  0.23220  1.0000
  C   C13       1.0  0.20471  0.31876  0.21676  1.0000
  C   C14       1.0  0.24429  0.35926  0.14148  1.0000
  C   C15       1.0  0.18918  0.24697  0.26000  1.0000
  H   H14       1.0  0.17087  0.22796  0.23348  1.0000
  C   C16       1.0  0.22669  0.29045  0.18440  1.0000
  H   H15       1.0  0.26268  0.28870  0.12293  1.0000
  H   H16       1.0  0.20017  0.35944  0.29711  1.0000
  S   S3        1.0  0.17896  0.46126  0.06366  1.0000
  H   H17       1.0  0.22160  0.42570  0.16768  1.0000
  H   H18       1.0  0.17351  0.23357  0.29058  1.0000
  N   N1        1.0  0.18398  0.29889  0.25654  1.0000
  H   H19       1.0  0.22665  0.23664  0.25994  1.0000
  C   C17       1.0  0.13324  0.30920  0.25831  1.0000
  H   H20       1.0  0.11566  0.29298  0.28674  1.0000
  S   S4        1.0  0.27755  0.51132  0.08831  1.0000
  Fe  Fe2       1.0  0.20265  0.51804  0.10902  1.0000
  H   H21       1.0  0.40373  0.48266  0.07950  1.0000
  C   C18       1.0  0.47248  0.43682  0.00282  1.0000
  C   C19       1.0  0.50745  0.40264  0.00156  1.0000
  N   N2        1.0  0.44039  0.51539  0.02668  1.0000
  Fe  Fe3       1.0  0.07569  0.41516  0.40755  1.0000
  H   H22       1.0  0.35076  0.22531  0.42099  1.0000
  S   S5        1.0  0.10604  0.48292  0.43382  1.0000
  Fe  Fe4       1.0  0.09172  0.30987  0.38911  1.0000
  S   S6        1.0  0.22478  0.02620  0.60232  1.0000
  S   S7        1.0  0.13942  0.24673  0.38428  1.0000
  C   C20       1.0  0.49385  0.07017  0.49175  1.0000
  H   H23       1.0  0.44287  0.08650  0.63048  1.0000
  S   S8        1.0  0.11015  0.37569  0.35332  1.0000
  S   S9        1.0  0.06492  0.34986  0.44672  1.0000
  H   H24       1.0  0.07745  0.16970  0.47546  1.0000
  S   S10       1.0  0.20367  0.15059  0.55624  1.0000
  C   C21       1.0  0.50554  0.03581  0.57438  1.0000
  H   H25       1.0  0.49871  0.25925  0.47247  1.0000
  C   C22       1.0  0.18520  0.17588  0.50805  1.0000
  C   C23       1.0  0.19418  0.15449  0.46814  1.0000
  C   C24       1.0  0.18016  0.17665  0.43027  1.0000
  C   C25       1.0  0.15677  0.21998  0.43221  1.0000
  C   C26       1.0  0.14752  0.24113  0.47214  1.0000
  C   C27       1.0  0.16176  0.21914  0.50993  1.0000
  H   H26       1.0  0.21182  0.12092  0.46644  1.0000
  H   H27       1.0  0.18721  0.16001  0.39943  1.0000
  H   H28       1.0  0.12987  0.27466  0.47399  1.0000
  H   H29       1.0  0.15491  0.23591  0.54077  1.0000
  C   C28       1.0  0.45526  0.05040  0.51371  1.0000
  H   H30       1.0  0.04851  0.13123  0.51143  1.0000
  Fe  Fe5       1.0  0.24605  0.08363  0.55728  1.0000
  H   H31       1.0  0.41665  0.25923  0.45350  1.0000
  C   C29       1.0  0.46136  0.03309  0.55507  1.0000
  C   C30       1.0  0.42728  0.23416  0.47720  1.0000
  N   N3        1.0  0.34500  0.19936  0.48564  1.0000
  C   C31       1.0  0.33141  0.23267  0.45156  1.0000
  C   C32       1.0  0.33253  0.15111  0.47037  1.0000
  C   C33       1.0  0.31660  0.21072  0.52454  1.0000
  C   C34       1.0  0.39538  0.20160  0.49639  1.0000
  C   C35       1.0  0.41397  0.17051  0.52714  1.0000
  H   H32       1.0  0.39220  0.14424  0.54248  1.0000
  H   H33       1.0  0.29336  0.22967  0.44419  1.0000
  H   H34       1.0  0.33764  0.26999  0.46162  1.0000
  H   H35       1.0  0.29596  0.14878  0.45862  1.0000
  H   H36       1.0  0.33479  0.12461  0.49610  1.0000
  H   H37       1.0  0.35643  0.13909  0.44396  1.0000
  H   H38       1.0  0.27846  0.21071  0.51759  1.0000
  H   H39       1.0  0.32125  0.18468  0.55047  1.0000
  H   H40       1.0  0.32602  0.24607  0.53795  1.0000
  S   S11       1.0  0.31926  0.08703  0.58230  1.0000
  H   H41       1.0  0.11757  0.04001  0.53921  1.0000
  Fe  Fe6       1.0  0.33547  0.03370  0.53063  1.0000
  H   H42       1.0  0.48942  0.08349  0.45965  1.0000
  C   C36       1.0  0.49176  0.20332  0.51796  1.0000
  H   H43       1.0  0.03741  0.02450  0.56688  1.0000
  Fe  Fe7       1.0  0.29967  0.02486  0.62227  1.0000
  H   H44       1.0  0.51000  0.02165  0.60614  1.0000
  S   S12       1.0  0.39963  0.04883  0.48932  1.0000
  C   C37       1.0  0.46135  0.17152  0.53772  1.0000
  H   H45       1.0  0.40277  0.13062  0.64965  1.0000
  C   C38       1.0  0.47475  0.23470  0.48791  1.0000
  H   H46       1.0  0.04549  0.11996  0.45451  1.0000
  S   S13       1.0  0.26279  0.03435  0.50241  1.0000
  C   C39       1.0  0.04500  0.14820  0.47968  1.0000
  C   C40       1.0  0.09104  0.02542  0.51804  1.0000
  H   H47       1.0  0.03995  0.22677  0.43641  1.0000
  H   H48       1.0  0.47487  0.14640  0.56034  1.0000
  H   H49       1.0  0.03142  0.23474  0.51416  1.0000
  Fe  Fe8       1.0  0.03778  0.36974  0.32731  1.0000
  S   S14       1.0  0.02101  0.30078  0.35941  1.0000
  H   H50       1.0  0.19311  0.30559  0.32518  1.0000
  S   S15       1.0  0.43415  0.38452  0.86883  1.0000
  H   H51       1.0  0.41691  0.50032  0.96200  1.0000
  H   H52       1.0  0.28514  0.28992  0.80880  1.0000
  S   S16       1.0  0.50447  0.15445  0.83533  1.0000
  C   C41       1.0  0.28420  0.35018  0.85133  1.0000
  H   H53       1.0  0.37192  0.45592  0.89865  1.0000
  H   H54       1.0  0.41182  0.31671  0.93587  1.0000
  C   C42       1.0  0.35924  0.35038  0.97586  1.0000
  H   H55       1.0  0.46907  0.19608  0.73950  1.0000
  H   H56       1.0  0.14965  0.33261  0.85183  1.0000
  H   H57       1.0  0.22513  0.46977  0.89753  1.0000
  H   H58       1.0  0.32207  0.35429  0.85108  1.0000
  C   C43       1.0  0.39126  0.34813  0.94126  1.0000
  C   C44       1.0  0.39569  0.38610  0.91323  1.0000
  C   C45       1.0  0.36862  0.42648  0.92032  1.0000
  C   C46       1.0  0.33747  0.42912  0.95541  1.0000
  H   H59       1.0  0.44068  0.42903  0.98565  1.0000
  H   H60       1.0  0.50069  0.05274  0.68008  1.0000
  H   H61       1.0  0.17044  0.42653  0.97178  1.0000
  H   H62       1.0  0.31735  0.46065  0.96077  1.0000
  H   H63       1.0  0.50194  0.07227  0.73520  1.0000
  S   S17       1.0  0.50159  0.27989  0.80987  1.0000
  S   S18       1.0  0.10232  0.51023  0.98015  1.0000
  H   H64       1.0  0.27419  0.40839  0.89377  1.0000
  H   H65       1.0  0.19903  0.28000  0.80961  1.0000
  S   S19       1.0  0.31677  0.02557  0.69282  1.0000
  C   C47       1.0  0.33210  0.39079  0.98291  1.0000
  C   C48       1.0  0.47870  0.06570  0.70732  1.0000
  H   H66       1.0  0.45468  0.03606  0.71597  1.0000
  H   H67       1.0  0.18116  0.46380  0.85701  1.0000
  N   N4        1.0  0.17887  0.40917  0.90446  1.0000
  C   C49       1.0  0.26347  0.31391  0.82756  1.0000
  S   S20       1.0  0.24049  0.51485  0.98846  1.0000
  C   C50       1.0  0.49480  0.05992  0.84889  1.0000
  N   N5        1.0  0.45264  0.10892  0.69665  1.0000
  C   C51       1.0  0.48614  0.14732  0.68611  1.0000
  Fe  Fe9       1.0  0.49069  0.32933  0.86560  1.0000
  C   C52       1.0  0.21495  0.30842  0.82814  1.0000
  C   C53       1.0  0.48967  0.18984  0.71067  1.0000
  C   C54       1.0  0.42116  0.11998  0.73370  1.0000
  H   H68       1.0  0.44108  0.12517  0.76400  1.0000
  C   C55       1.0  0.25648  0.38105  0.87575  1.0000
  C   C56       1.0  0.20701  0.37650  0.87732  1.0000
  C   C57       1.0  0.18689  0.33910  0.85264  1.0000
  C   C58       1.0  0.12757  0.40105  0.90151  1.0000
  C   C59       1.0  0.18836  0.45869  0.89170  1.0000
  H   H69       1.0  0.10764  0.42677  0.92194  1.0000
  H   H70       1.0  0.16624  0.48411  0.91034  1.0000
  H   H71       1.0  0.11736  0.36540  0.91311  1.0000
  H   H72       1.0  0.40010  0.15205  0.72787  1.0000
  H   H73       1.0  0.48052  0.05848  0.81688  1.0000
  H   H74       1.0  0.39566  0.09071  0.73985  1.0000
  H   H75       1.0  0.50216  0.36995  0.98360  1.0000
  H   H76       1.0  0.11510  0.40552  0.86809  1.0000
  H   H77       1.0  0.22908  0.41321  0.95589  1.0000
  C   C60       1.0  0.19192  0.40363  0.95007  1.0000
  H   H78       1.0  0.48404  0.48022  0.86218  1.0000
  C   C61       1.0  0.50772  0.50226  0.88088  1.0000
  H   H79       1.0  0.18715  0.36650  0.96064  1.0000
  C   C62       1.0  0.50933  0.10332  0.86661  1.0000
  S   S21       1.0  0.50921  0.27568  0.91498  1.0000
  H   H80       1.0  0.39688  0.07036  0.66566  1.0000
  C   C63       1.0  0.42266  0.09885  0.65897  1.0000
  H   H81       1.0  0.11509  0.67685  0.26948  1.0000
  H   H82       1.0  0.45780  0.55094  0.08623  1.0000
  C   C64       1.0  0.12211  0.60948  0.29944  1.0000
  Fe  Fe10      1.0  0.26248  0.56688  0.03952  1.0000
  H   H83       1.0  0.06825  0.60390  0.13147  1.0000
  H   H84       1.0  0.48296  0.57744  0.03826  1.0000
  S   S22       1.0  0.18881  0.57849  0.06485  1.0000
  C   C65       1.0  0.12166  0.65862  0.29923  1.0000
  H   H85       1.0  0.11622  0.58965  0.26992  1.0000
  S   S23       1.0  0.32813  0.61127  0.02978  1.0000
  C   C66       1.0  0.45184  0.55883  0.05179  1.0000
  C   C67       1.0  0.06331  0.56583  0.12380  1.0000
  H   H86       1.0  0.42251  0.58459  0.05146  1.0000
  C   C68       1.0  0.02677  0.62751  0.00865  1.0000
  H   H87       1.0  0.09129  0.54628  0.14047  1.0000
  S   S24       1.0  0.18270  0.52119  0.17953  1.0000
  H   H88       1.0  0.02292  0.62655  0.18903  1.0000
  H   H89       1.0  0.03356  0.66372  0.01829  1.0000
  C   C69       1.0  0.06427  0.59610  0.00333  1.0000
  H   H90       1.0  0.06977  0.56188  0.08860  1.0000
  H   H91       1.0  0.09975  0.60828  0.00851  1.0000
  C   C70       1.0  0.33272  0.66127  0.99665  1.0000
  H   H92       1.0  0.40740  0.66671  0.00472  1.0000
  Fe  Fe11      1.0  0.16852  0.52079  0.01804  1.0000
  H   H93       1.0  0.36837  0.52024  0.04726  1.0000
  S   S25       1.0  0.08377  0.84705  0.38272  1.0000
  C   C71       1.0  0.05915  0.54820  0.48225  1.0000
  Fe  Fe12      1.0  0.24688  0.97636  0.54948  1.0000
  C   C72       1.0  0.06566  0.52888  0.44111  1.0000
  S   S26       1.0  0.19950  0.91199  0.54609  1.0000
  C   C73       1.0  0.13004  0.58593  0.33763  1.0000
  C   C74       1.0  0.04590  0.01673  0.53351  1.0000
  H   H94       1.0  0.11098  0.75209  0.40232  1.0000
  H   H95       1.0  0.22095  0.68203  0.41008  1.0000
  H   H96       1.0  0.43213  0.01705  0.57198  1.0000
  S   S27       1.0  0.32116  0.97100  0.57260  1.0000
  H   H97       1.0  0.14317  0.59126  0.40449  1.0000
  H   H98       1.0  0.11097  0.63659  0.45810  1.0000
  C   C75       1.0  0.19286  0.67474  0.43427  1.0000
  C   C76       1.0  0.02874  0.58615  0.48884  1.0000
  H   H99       1.0  0.04712  0.53352  0.37441  1.0000
  C   C77       1.0  0.11409  0.86630  0.42881  1.0000
  C   C78       1.0  0.14971  0.90039  0.42449  1.0000
  C   C79       1.0  0.17548  0.91567  0.46037  1.0000
  C   C80       1.0  0.16608  0.89642  0.50071  1.0000
  C   C81       1.0  0.13027  0.86248  0.50502  1.0000
  C   C82       1.0  0.10408  0.84768  0.46927  1.0000
  H   H100      1.0  0.15778  0.91469  0.39318  1.0000
  H   H101      1.0  0.20332  0.94144  0.45668  1.0000
  H   H102      1.0  0.12292  0.84748  0.53620  1.0000
  H   H103      1.0  0.07673  0.82139  0.47296  1.0000
  H   H104      1.0  0.02328  0.60029  0.52095  1.0000
  H   H105      1.0  0.11390  0.69482  0.48034  1.0000
  H   H106      1.0  0.12841  0.72245  0.33454  1.0000
  H   H107      1.0  0.15237  0.75826  0.44424  1.0000
  C   C83       1.0  0.10993  0.67454  0.44971  1.0000
  C   C84       1.0  0.04211  0.54833  0.40630  1.0000
  H   H108      1.0  0.20140  0.69506  0.46408  1.0000
  H   H109      1.0  0.38218  0.96694  0.64443  1.0000
  H   H110      1.0  0.19487  0.63679  0.44262  1.0000
  N   N6        1.0  0.14633  0.68752  0.41750  1.0000
  C   C85       1.0  0.14565  0.73967  0.41314  1.0000
  C   C86       1.0  0.13775  0.66151  0.37668  1.0000
  H   H111      1.0  0.33056  0.87517  0.64599  1.0000
  Fe  Fe13      1.0  0.02040  0.79873  0.38618  1.0000
  H   H112      1.0  0.17290  0.75240  0.39011  1.0000
  C   C87       1.0  0.13768  0.61139  0.37570  1.0000
  H   H113      1.0  0.07736  0.53348  0.50920  1.0000
  H   H114      1.0  0.07422  0.68162  0.43755  1.0000
  C   C88       1.0  0.06919  0.99329  0.44855  1.0000
  C   C89       1.0  0.02265  0.98426  0.46319  1.0000
  S   S28       1.0  0.01964  0.72244  0.36554  1.0000
  H   H115      1.0  0.13000  0.54764  0.33795  1.0000
  C   C90       1.0  0.12953  0.68449  0.33711  1.0000
  H   H116      1.0  0.03177  0.93401  0.38460  1.0000
  H   H117      1.0  0.25395  0.91385  0.63906  1.0000
  H   H118      1.0  0.08118  0.98345  0.41670  1.0000
  C   C91       1.0  0.10261  0.01375  0.47569  1.0000
  H   H119      1.0  0.13827  0.01904  0.46428  1.0000
  C   C92       1.0  0.23539  0.90543  0.70574  1.0000
  C   C93       1.0  0.26456  0.90029  0.66990  1.0000
  H   H120      1.0  0.48651  0.98509  0.85864  1.0000
  Fe  Fe14      1.0  0.42123  0.82262  0.90000  1.0000
  S   S29       1.0  0.46157  0.78974  0.84530  1.0000
  S   S30       1.0  0.34859  0.79429  0.91501  1.0000
  C   C94       1.0  0.38238  0.72219  0.96447  1.0000
  Fe  Fe15      1.0  0.47183  0.86378  0.82227  1.0000
  S   S31       1.0  0.46947  0.88096  0.75182  1.0000
  S   S32       1.0  0.48377  0.83122  0.94294  1.0000
  S   S33       1.0  0.42676  0.89617  0.87379  1.0000
  C   C95       1.0  0.43025  0.92458  0.73569  1.0000
  C   C96       1.0  0.42245  0.93099  0.69182  1.0000
  C   C97       1.0  0.37110  0.98312  0.75237  1.0000
  C   C98       1.0  0.40560  0.95184  0.76586  1.0000
  C   C99       1.0  0.36159  0.98771  0.70861  1.0000
  H   H121      1.0  0.26846  0.73770  0.93832  1.0000
  H   H122      1.0  0.41264  0.94857  0.79960  1.0000
  H   H123      1.0  0.35444  0.79402  0.77073  1.0000
  H   H124      1.0  0.27164  0.90195  0.83095  1.0000
  C   C100      1.0  0.35261  0.82465  0.79335  1.0000
  H   H125      1.0  0.20223  0.92326  0.70251  1.0000
  C   C101      1.0  0.34324  0.74265  0.94595  1.0000
  H   H126      1.0  0.46149  0.54491  0.96598  1.0000
  H   H127      1.0  0.31845  0.87377  0.85753  1.0000
  C   C102      1.0  0.30758  0.87821  0.67384  1.0000
  C   C103      1.0  0.32177  0.86121  0.71362  1.0000
  C   C104      1.0  0.27122  0.81105  0.80754  1.0000
  H   H128      1.0  0.33081  0.91483  0.81527  1.0000
  H   H129      1.0  0.28104  0.79558  0.83898  1.0000
  H   H130      1.0  0.26867  0.78162  0.78365  1.0000
  H   H131      1.0  0.35612  0.84564  0.71438  1.0000
  H   H132      1.0  0.23566  0.82589  0.81219  1.0000
  H   H133      1.0  0.22510  0.89307  0.77239  1.0000
  N   N7        1.0  0.30584  0.84708  0.79333  1.0000
  C   C105      1.0  0.30661  0.88610  0.82555  1.0000
  C   C106      1.0  0.24896  0.88818  0.74560  1.0000
  C   C107      1.0  0.29890  0.72196  0.95246  1.0000
  C   C108      1.0  0.38833  0.96269  0.67827  1.0000
  H   H134      1.0  0.38074  0.85030  0.78485  1.0000
  H   H135      1.0  0.44195  0.91050  0.66825  1.0000
  Fe  Fe16      1.0  0.49325  0.90183  0.91102  1.0000
  H   H136      1.0  0.36135  0.81093  0.82558  1.0000
  C   C109      1.0  0.29258  0.86543  0.75081  1.0000
  H   H137      1.0  0.41662  0.73793  0.95974  1.0000
  C   C110      1.0  0.05584  0.54962  0.98984  1.0000
  C   C111      1.0  0.42990  0.53004  0.98221  1.0000
  C   C112      1.0  0.29363  0.68122  0.97758  1.0000
  C   C113      1.0  0.37706  0.68179  0.98989  1.0000
  H   H138      1.0  0.25932  0.66579  0.98276  1.0000
  H   H139      1.0  0.40204  0.55741  0.98175  1.0000
  H   H140      1.0  0.49493  0.56467  0.84453  1.0000
  C   C114      1.0  0.51388  0.54974  0.87107  1.0000
  H   H141      1.0  0.35129  0.00330  0.77593  1.0000
  C   C115      1.0  0.49809  0.01824  0.87256  1.0000
  C   C116      1.0  0.51554  0.01973  0.91435  1.0000
  H   H142      1.0  0.89530  0.45032  0.31995  1.0000
  C   C117      1.0  0.99591  0.51394  0.25407  1.0000
  H   H143      1.0  0.99574  0.47543  0.19557  1.0000
  H   H144      1.0  0.74402  0.43992  0.01748  1.0000
  H   H145      1.0  0.70054  0.36323  0.01812  1.0000
  C   C118      1.0  0.71692  0.43288  0.99420  1.0000
  C   C119      1.0  0.55603  0.45208  0.04647  1.0000
  H   H146      1.0  0.97529  0.48494  0.12492  1.0000
  H   H147      1.0  0.58855  0.45747  0.06359  1.0000
  C   C120      1.0  0.69226  0.38951  0.99451  1.0000
  C   C121      1.0  0.54917  0.41028  0.02329  1.0000
  H   H148      1.0  0.98869  0.48257  0.27275  1.0000
  H   H149      1.0  0.52855  0.51774  0.06705  1.0000
  H   H150      1.0  0.57610  0.38351  0.02239  1.0000
  C   C122      1.0  0.00032  0.51029  0.20933  1.0000
  C   C123      1.0  0.52118  0.48655  0.04801  1.0000
  C   C124      1.0  0.01078  0.49974  0.11816  1.0000
  H   H151      1.0  0.01535  0.49940  0.08250  1.0000
  H   H152      1.0  0.86689  0.42300  0.46110  1.0000
  Fe  Fe17      1.0  0.74662  0.14492  0.51382  1.0000
  S   S34       1.0  0.80136  0.12804  0.56205  1.0000
  S   S35       1.0  0.76890  0.18469  0.45406  1.0000
  Fe  Fe18      1.0  0.66983  0.08801  0.55997  1.0000
  S   S36       1.0  0.72100  0.06561  0.61002  1.0000
  S   S37       1.0  0.59696  0.06336  0.58132  1.0000
  Fe  Fe19      1.0  0.74470  0.14082  0.61109  1.0000
  H   H153      1.0  0.57113  0.17388  0.61091  1.0000
  Fe  Fe20      1.0  0.77291  0.05432  0.55657  1.0000
  S   S38       1.0  0.69157  0.16455  0.56358  1.0000
  S   S39       1.0  0.72027  0.06988  0.50576  1.0000
  C   C125      1.0  0.54386  0.05676  0.55304  1.0000
  H   H154      1.0  0.90797  0.06025  0.53924  1.0000
  H   H155      1.0  0.92420  0.17569  0.42165  1.0000
  S   S40       1.0  0.00429  0.41381  0.37924  1.0000
  C   C126      1.0  0.95318  0.11338  0.51096  1.0000
  H   H156      1.0  0.89887  0.43073  0.39599  1.0000
  H   H157      1.0  0.88284  0.28631  0.52881  1.0000
  H   H158      1.0  0.84671  0.06747  0.48473  1.0000
  C   C127      1.0  0.89311  0.28832  0.46013  1.0000
  C   C128      1.0  0.87769  0.27074  0.42053  1.0000
  C   C129      1.0  0.83963  0.23883  0.41901  1.0000
  C   C130      1.0  0.81760  0.22345  0.45702  1.0000
  C   C131      1.0  0.83410  0.23997  0.49658  1.0000
  C   C132      1.0  0.87129  0.27270  0.49806  1.0000
  H   H159      1.0  0.89394  0.28287  0.39107  1.0000
  H   H160      1.0  0.82689  0.22629  0.38829  1.0000
  H   H161      1.0  0.81725  0.22860  0.52601  1.0000
  S   S41       1.0  0.93754  0.33184  0.46396  1.0000
  H   H162      1.0  0.85523  0.12580  0.42691  1.0000
  C   C133      1.0  0.53797  0.07374  0.51148  1.0000
  H   H163      1.0  0.94996  0.43328  0.45635  1.0000
  N   N8        1.0  0.00216  0.17733  0.47672  1.0000
  H   H164      1.0  0.96859  0.23310  0.51259  1.0000
  H   H165      1.0  0.95187  0.45966  0.50838  1.0000
  H   H166      1.0  0.97832  0.10996  0.53634  1.0000
  C   C134      1.0  0.89958  0.50358  0.41972  1.0000
  C   C135      1.0  0.00041  0.21062  0.51379  1.0000
  C   C136      1.0  0.94719  0.46756  0.47377  1.0000
  H   H167      1.0  0.56723  0.08983  0.49467  1.0000
  H   H168      1.0  0.69908  0.23766  0.63280  1.0000
  Fe  Fe21      1.0  0.99490  0.34539  0.41467  1.0000
  H   H169      1.0  0.94592  0.02316  0.43083  1.0000
  C   C137      1.0  0.87835  0.08878  0.48234  1.0000
  C   C138      1.0  0.95984  0.14672  0.47766  1.0000
  C   C139      1.0  0.88342  0.12149  0.44961  1.0000
  C   C140      1.0  0.89801  0.46762  0.38758  1.0000
  C   C141      1.0  0.92341  0.15021  0.44714  1.0000
  H   H170      1.0  0.97723  0.48993  0.46318  1.0000
  C   C142      1.0  0.91308  0.08478  0.51302  1.0000
  C   C143      1.0  0.54787  0.17869  0.63846  1.0000
  H   H171      1.0  0.99941  0.19205  0.54503  1.0000
  H   H172      1.0  0.82883  0.47280  0.46831  1.0000
  H   H173      1.0  0.86242  0.45054  0.51222  1.0000
  N   N9        1.0  0.90208  0.49109  0.46575  1.0000
  H   H174      1.0  0.97812  0.23215  0.43478  1.0000
  C   C144      1.0  0.86335  0.45810  0.47721  1.0000
  C   C145      1.0  0.00672  0.20583  0.43708  1.0000
  H   H175      1.0  0.00679  0.18309  0.40769  1.0000
  C   C146      1.0  0.89625  0.47846  0.34389  1.0000
  H   H176      1.0  0.57323  0.24855  0.65321  1.0000
  H   H177      1.0  0.52871  0.20313  0.52555  1.0000
  C   C147      1.0  0.51696  0.14257  0.65022  1.0000
  H   H178      1.0  0.51774  0.11061  0.63106  1.0000
  H   H179      1.0  0.72923  0.38271  0.74200  1.0000
  Fe  Fe22      1.0  0.57588  0.30478  0.80861  1.0000
  S   S42       1.0  0.60157  0.25087  0.85442  1.0000
  S   S43       1.0  0.61041  0.32119  0.74503  1.0000
  C   C148      1.0  0.80033  0.28943  0.72586  1.0000
  H   H180      1.0  0.64689  0.13960  0.80037  1.0000
  Fe  Fe23      1.0  0.58266  0.30437  0.90588  1.0000
  C   C149      1.0  0.77184  0.32761  0.71705  1.0000
  H   H181      1.0  0.62925  0.16620  0.73017  1.0000
  C   C150      1.0  0.70791  0.46588  0.96234  1.0000
  S   S44       1.0  0.56278  0.35984  0.85915  1.0000
  H   H182      1.0  0.68857  0.08482  0.70093  1.0000
  C   C151      1.0  0.80869  0.27730  0.76828  1.0000
  H   H183      1.0  0.67388  0.38514  0.79345  1.0000
  S   S45       1.0  0.63042  0.32343  0.96154  1.0000
  C   C152      1.0  0.68535  0.36969  0.82417  1.0000
  H   H184      1.0  0.73009  0.37542  0.89840  1.0000
  C   C153      1.0  0.70899  0.21924  0.73999  1.0000
  C   C154      1.0  0.67602  0.25185  0.75535  1.0000
  C   C155      1.0  0.65169  0.27981  0.72659  1.0000
  C   C156      1.0  0.66089  0.27528  0.68244  1.0000
  H   H185      1.0  0.72867  0.19871  0.76246  1.0000
  H   H186      1.0  0.67052  0.25609  0.78944  1.0000
  H   H187      1.0  0.66741  0.39011  0.85001  1.0000
  H   H188      1.0  0.64266  0.07854  0.81412  1.0000
  H   H189      1.0  0.76425  0.33596  0.68396  1.0000
  H   H190      1.0  0.57426  0.13600  0.72854  1.0000
  H   H191      1.0  0.64322  0.29781  0.66012  1.0000
  H   H192      1.0  0.66543  0.48161  0.90771  1.0000
  H   H193      1.0  0.61750  0.12682  0.68671  1.0000
  C   C157      1.0  0.78846  0.30318  0.80218  1.0000
  H   H194      1.0  0.81466  0.26815  0.69970  1.0000
  H   H195      1.0  0.61961  0.40815  0.91136  1.0000
  C   C158      1.0  0.64715  0.41410  0.93387  1.0000
  H   H196      1.0  0.78517  0.35448  0.87979  1.0000
  C   C159      1.0  0.74705  0.35328  0.87298  1.0000
  H   H197      1.0  0.73342  0.31674  0.87771  1.0000
  N   N10       1.0  0.63157  0.09260  0.74702  1.0000
  Fe  Fe24      1.0  0.52629  0.22769  0.85826  1.0000
  N   N11       1.0  0.73688  0.37062  0.82921  1.0000
  C   C160      1.0  0.62776  0.10603  0.79322  1.0000
  C   C161      1.0  0.75167  0.35390  0.75062  1.0000
  C   C162      1.0  0.67285  0.45629  0.93236  1.0000
  H   H198      1.0  0.53897  0.13811  0.92194  1.0000
  C   C163      1.0  0.69243  0.24122  0.66693  1.0000
  H   H199      1.0  0.79238  0.42234  0.82885  1.0000
  H   H200      1.0  0.73905  0.44221  0.85394  1.0000
  C   C164      1.0  0.75353  0.42026  0.82699  1.0000
  H   H201      1.0  0.70299  0.11847  0.74709  1.0000
  C   C165      1.0  0.75913  0.34241  0.79430  1.0000
  H   H202      1.0  0.67141  0.33295  0.82504  1.0000
  C   C166      1.0  0.68200  0.08750  0.73615  1.0000
  S   S46       1.0  0.75717  0.17119  0.67748  1.0000
  C   C167      1.0  0.71650  0.21313  0.69572  1.0000
  H   H203      1.0  0.74301  0.43753  0.79676  1.0000
  H   H204      1.0  0.79586  0.29131  0.83417  1.0000
  C   C168      1.0  0.52092  0.22578  0.69866  1.0000
  H   H205      1.0  0.52866  0.44546  0.92088  1.0000
  H   H206      1.0  0.58239  0.49300  0.96336  1.0000
  C   C169      1.0  0.57967  0.02203  0.76627  1.0000
  C   C170      1.0  0.65789  0.37959  0.96365  1.0000
  C   C171      1.0  0.61231  0.13193  0.72194  1.0000
  H   H207      1.0  0.59072  0.11230  0.80310  1.0000
  H   H208      1.0  0.83006  0.24684  0.77477  1.0000
  S   S47       1.0  0.74075  0.51831  0.95629  1.0000
  H   H209      1.0  0.54418  0.06440  0.96422  1.0000
  C   C172      1.0  0.53067  0.06303  0.93190  1.0000
  C   C173      1.0  0.60627  0.04841  0.73583  1.0000
  C   C174      1.0  0.56362  0.51070  0.93846  1.0000
  H   H210      1.0  0.69683  0.05550  0.75101  1.0000
  H   H211      1.0  0.57661  0.03247  0.79966  1.0000
  C   C175      1.0  0.52767  0.10479  0.90806  1.0000
  C   C176      1.0  0.53279  0.48276  0.91425  1.0000
  H   H212      1.0  0.00293  0.49855  0.97213  1.0000
  H   H213      1.0  0.52333  0.25809  0.71763  1.0000
  H   H214      1.0  0.62704  0.04882  0.66807  1.0000
  C   C177      1.0  0.54947  0.22042  0.66242  1.0000
  C   C178      1.0  0.60740  0.03084  0.69295  1.0000
  S   S48       1.0  0.95810  0.71963  0.25468  1.0000
  Fe  Fe25      1.0  0.80730  0.58926  0.09917  1.0000
  S   S49       1.0  0.81709  0.57370  0.16974  1.0000
  H   H215      1.0  0.98414  0.61573  0.12516  1.0000
  S   S50       1.0  0.73773  0.59090  0.06579  1.0000
  C   C179      1.0  0.92139  0.67526  0.23340  1.0000
  C   C180      1.0  0.92236  0.66769  0.18892  1.0000
  C   C181      1.0  0.89143  0.63551  0.16970  1.0000
  C   C182      1.0  0.85956  0.60994  0.19470  1.0000
  C   C183      1.0  0.85991  0.61578  0.23962  1.0000
  C   C184      1.0  0.89051  0.64886  0.25897  1.0000
  H   H216      1.0  0.94639  0.68777  0.16901  1.0000
  H   H217      1.0  0.89237  0.63055  0.13534  1.0000
  H   H218      1.0  0.83518  0.59622  0.25920  1.0000
  H   H219      1.0  0.88947  0.65475  0.29333  1.0000
  N   N12       1.0  0.80063  0.76005  0.18253  1.0000
  C   C185      1.0  0.79617  0.79001  0.22165  1.0000
  C   C186      1.0  0.82664  0.78336  0.25678  1.0000
  C   C187      1.0  0.76143  0.82537  0.22669  1.0000
  C   C188      1.0  0.01082  0.55047  0.18394  1.0000
  H   H220      1.0  0.61473  0.86133  0.99754  1.0000
  H   H221      1.0  0.94443  0.56607  0.12635  1.0000
  H   H222      1.0  0.73636  0.83263  0.20203  1.0000
  C   C189      1.0  0.00136  0.55743  0.27479  1.0000
  C   C190      1.0  0.77077  0.94314  0.02320  1.0000
  H   H223      1.0  0.73125  0.87915  0.26800  1.0000
  S   S51       1.0  0.82718  0.66201  0.07881  1.0000
  H   H224      1.0  0.81598  0.69735  0.21810  1.0000
  C   C191      1.0  0.79108  0.71029  0.19402  1.0000
  C   C192      1.0  0.98059  0.61239  0.00147  1.0000
  C   C193      1.0  0.84888  0.76411  0.16467  1.0000
  H   H225      1.0  0.79396  0.68606  0.16572  1.0000
  H   H226      1.0  0.85362  0.75678  0.25576  1.0000
  H   H227      1.0  0.87580  0.75193  0.18732  1.0000
  H   H228      1.0  0.75530  0.70586  0.20794  1.0000
  H   H229      1.0  0.85770  0.80131  0.15672  1.0000
  Fe  Fe26      1.0  0.77675  0.56126  0.00857  1.0000
  C   C194      1.0  0.75800  0.85243  0.26454  1.0000
  Fe  Fe27      1.0  0.76127  0.66128  0.04122  1.0000
  H   H230      1.0  0.73070  0.76726  0.15771  1.0000
  Fe  Fe28      1.0  0.86142  0.62558  0.02265  1.0000
  C   C195      1.0  0.76790  0.77253  0.14778  1.0000
  S   S52       1.0  0.71160  0.72280  0.04747  1.0000
  H   H231      1.0  0.62398  0.77062  0.03820  1.0000
  H   H232      1.0  0.80135  0.95321  0.04155  1.0000
  H   H233      1.0  0.85359  0.74232  0.13497  1.0000
  H   H234      1.0  0.77309  0.74971  0.11869  1.0000
  H   H235      1.0  0.77322  0.80953  0.13721  1.0000
  S   S53       1.0  0.84450  0.55216  0.04438  1.0000
  C   C196      1.0  0.62241  0.56738  0.99270  1.0000
  H   H236      1.0  0.72528  0.94066  0.07853  1.0000
  C   C197      1.0  0.82289  0.81060  0.29429  1.0000
  H   H237      1.0  0.65623  0.91812  0.03860  1.0000
  H   H238      1.0  0.59370  0.55692  0.01504  1.0000
  C   C198      1.0  0.98024  0.57777  0.11656  1.0000
  H   H239      1.0  0.64625  0.59172  0.01068  1.0000
  C   C199      1.0  0.63467  0.75735  0.00688  1.0000
  C   C200      1.0  0.67686  0.73272  0.00229  1.0000
  C   C201      1.0  0.72791  0.93596  0.04396  1.0000
  H   H240      1.0  0.59431  0.92165  0.99397  1.0000
  S   S54       1.0  0.93454  0.65274  0.00892  1.0000
  H   H241      1.0  0.99789  0.56008  0.30942  1.0000
  H   H242      1.0  0.98208  0.57567  0.08095  1.0000
  C   C202      1.0  0.01103  0.59756  0.25084  1.0000
  C   C203      1.0  0.78869  0.84506  0.29823  1.0000
  H   H243      1.0  0.89460  0.53362  0.29700  1.0000
  C   C204      1.0  0.68833  0.92286  0.02047  1.0000
  H   H244      1.0  0.84660  0.80480  0.32062  1.0000
  C   C205      1.0  0.01582  0.59427  0.20615  1.0000
  N   N13       1.0  0.01620  0.54808  0.13654  1.0000
  Fe  Fe29      1.0  0.95835  0.74064  0.32482  1.0000
  H   H245      1.0  0.01443  0.63159  0.26692  1.0000
  S   S55       1.0  0.96372  0.81769  0.34075  1.0000
  S   S56       1.0  0.90369  0.72675  0.37539  1.0000
  C   C206      1.0  0.89883  0.53258  0.49528  1.0000
  S   S57       1.0  0.97127  0.78884  0.44208  1.0000
  Fe  Fe30      1.0  0.96559  0.71369  0.41760  1.0000
  H   H246      1.0  0.86595  0.55249  0.49033  1.0000
  Fe  Fe31      1.0  0.91411  0.80295  0.39515  1.0000
  S   S58       1.0  0.85609  0.85666  0.39964  1.0000
  H   H247      1.0  0.92477  0.98285  0.47097  1.0000
  H   H248      1.0  0.96786  0.91087  0.48568  1.0000
  H   H249      1.0  0.95408  0.89188  0.43212  1.0000
  C   C207      1.0  0.89603  0.52530  0.33090  1.0000
  H   H250      1.0  0.90198  0.58095  0.42706  1.0000
  N   N14       1.0  0.98719  0.96021  0.43610  1.0000
  C   C208      1.0  0.98035  0.91154  0.45172  1.0000
  C   C209      1.0  0.84727  0.89389  0.44473  1.0000
  C   C210      1.0  0.86973  0.88617  0.48364  1.0000
  C   C211      1.0  0.86281  0.91751  0.51848  1.0000
  C   C212      1.0  0.83297  0.95633  0.51477  1.0000
  C   C213      1.0  0.81036  0.96387  0.47592  1.0000
  C   C214      1.0  0.81748  0.93270  0.44105  1.0000
  H   H251      1.0  0.89202  0.85584  0.48703  1.0000
  H   H252      1.0  0.88013  0.91135  0.54860  1.0000
  C   C215      1.0  0.94168  0.98519  0.43875  1.0000
  H   H253      1.0  0.79977  0.93871  0.41110  1.0000
  H   H254      1.0  0.78726  0.99359  0.47275  1.0000
  H   H255      1.0  0.89934  0.52213  0.52962  1.0000
  H   H256      1.0  0.91548  0.96946  0.41635  1.0000
  C   C216      1.0  0.89987  0.55104  0.40529  1.0000
  S   S59       1.0  0.82609  0.99546  0.55878  1.0000
  H   H257      1.0  0.97257  0.94056  0.37018  1.0000
  H   H258      1.0  0.99594  0.60361  0.38565  1.0000
  S   S60       1.0  0.96799  0.65377  0.46446  1.0000
  H   H259      1.0  0.92904  0.55718  0.49090  1.0000
  C   C217      1.0  0.89805  0.56145  0.36153  1.0000
  H   H260      1.0  0.97833  0.98829  0.52082  1.0000
  H   H261      1.0  0.78597  0.86587  0.32767  1.0000
  C   C218      1.0  0.00080  0.95704  0.38992  1.0000
  H   H262      1.0  0.00849  0.99249  0.37653  1.0000
  H   H263      1.0  0.58469  0.97734  0.64792  1.0000
  H   H264      1.0  0.89847  0.59792  0.35140  1.0000
  C   C219      1.0  0.00638  0.60670  0.45407  1.0000
  C   C220      1.0  0.01337  0.58804  0.41261  1.0000
  H   H265      1.0  0.01366  0.89145  0.45004  1.0000
  C   C221      1.0  0.01220  0.99622  0.50670  1.0000
  C   C222      1.0  0.60549  0.76348  0.97133  1.0000
  H   H266      1.0  0.62921  0.84710  0.90468  1.0000
  C   C223      1.0  0.69041  0.71555  0.96184  1.0000
  H   H267      1.0  0.73916  0.92127  0.92052  1.0000
  H   H268      1.0  0.60609  0.93467  0.90136  1.0000
  H   H269      1.0  0.62830  0.97488  0.94088  1.0000
  C   C224      1.0  0.55554  0.98091  0.75401  1.0000
  H   H270      1.0  0.72323  0.69732  0.95785  1.0000
  S   S61       1.0  0.58242  0.74965  0.88626  1.0000
  N   N15       1.0  0.60404  0.58967  0.95342  1.0000
  H   H271      1.0  0.67227  0.62061  0.94212  1.0000
  C   C225      1.0  0.00967  0.53443  0.98272  1.0000
  C   C226      1.0  0.55736  0.96483  0.71153  1.0000
  C   C227      1.0  0.66156  0.72205  0.92631  1.0000
  H   H272      1.0  0.54879  0.62792  0.98575  1.0000
  N   N16       1.0  0.64962  0.90295  0.94901  1.0000
  H   H273      1.0  0.63413  0.62209  0.89684  1.0000
  C   C228      1.0  0.61890  0.74559  0.93101  1.0000
  C   C229      1.0  0.64441  0.60061  0.92484  1.0000
  H   H274      1.0  0.80760  0.94331  0.96266  1.0000
  H   H275      1.0  0.67225  0.70852  0.89508  1.0000
  H   H276      1.0  0.57231  0.78114  0.97527  1.0000
  H   H277      1.0  0.66609  0.95273  0.89875  1.0000
  H   H278      1.0  0.68655  0.86921  0.89563  1.0000
  C   C230      1.0  0.60758  0.89070  0.97525  1.0000
  H   H279      1.0  0.54979  0.61409  0.88471  1.0000
  H   H280      1.0  0.57281  0.65743  0.93972  1.0000
  C   C231      1.0  0.66071  0.86123  0.92146  1.0000
  C   C232      1.0  0.63726  0.94298  0.92124  1.0000
  S   S62       1.0  0.53879  0.87429  0.85760  1.0000
  C   C233      1.0  0.58325  0.98976  0.68107  1.0000
  C   C234      1.0  0.77421  0.93757  0.97876  1.0000
  H   H281      1.0  0.66099  0.56780  0.91218  1.0000
  H   H282      1.0  0.67499  0.83204  0.94091  1.0000
  C   C235      1.0  0.54507  0.57788  0.89465  1.0000
  C   C236      1.0  0.57042  0.55942  0.92957  1.0000
  H   H283      1.0  0.57781  0.87916  0.95479  1.0000
  H   H284      1.0  0.53874  0.93287  0.70221  1.0000
  C   C237      1.0  0.73485  0.92464  0.95495  1.0000
  C   C238      1.0  0.58158  0.63456  0.96719  1.0000
  H   H285      1.0  0.53515  0.96124  0.77750  1.0000
  Fe  Fe32      1.0  0.52457  0.80334  0.88612  1.0000
  C   C239      1.0  0.69075  0.91636  0.97510  1.0000
  C   C240      1.0  0.97206  0.56554  0.98906  1.0000
  H   H286      1.0  0.64400  0.53599  0.98483  1.0000
  S   S63       1.0  0.79718  0.63248  0.98235  1.0000
  S   S64       1.0  0.51885  0.96786  0.94492  1.0000
  H   H287      1.0  0.93659  0.55363  0.98337  1.0000
  H   H288      1.0  0.60516  0.65651  0.98772  1.0000
