data_image0
_chemical_formula_structural       HCSCHCHFeCH2C3NHC3H5SH2SNH2SH2C2H8CNCHCH2CHCHCH3FeHCFeS2H2S3C6H8C2H2SHCFe3SFeC2FeH3S2H3NCSHCHCH4NCH2CS2H2CHCSFeS2FeSHFe2S3C6H6CSCHCH2C2H3FeH2CHCHC7H2CH2NHC2HC4H2C4HCHCHC2H2FeS2HCFeCFeSHSHC6H2CHSCHCHCFeHCH2C2HC2HC2H3C2HFeSCHC3SHSH3C2NC2HC6HNH2CHCHCH3CH2CHCH3CHSHFeC2HCHCH2CH2CNCH4CH3CHSCNHCHCH4C2HCH2FeS2H2FeSCS2HC6H8CHC2H3C2HCSCNH3NCH3CFeHFeSCSFeSFeS3C2H3C7H7NC2H3CH3SHCFeCHSHCH3C2H4C3HCH2CHCH5SCSH2CFeCHC2H5NC4H2C2HCH2FeCH2C2H2FeS2H4SC4HSHC2HCHCH2SHCHC3HC2H3CH3CH2CNCHC2S2H4C3HFeS2H2CSHCH2C2HC2HFeC2H4CHCHC2H2SC2HCNHCSCSH2C2SFeHCHCHC3HC4H2CHC2H2CHCH
_chemical_formula_sum              "H288 C240 S64 Fe32 N16"
_cell_length_a       26.421
_cell_length_b       26.6491
_cell_length_c       35.8927
_cell_angle_alpha    89.6361
_cell_angle_beta     89.4269
_cell_angle_gamma    90.5163

_space_group_name_H-M_alt    "P 1"
_space_group_IT_number       1

loop_
  _space_group_symop_operation_xyz
  'x, y, z'

loop_
  _atom_site_type_symbol
  _atom_site_label
  _atom_site_symmetry_multiplicity
  _atom_site_fract_x
  _atom_site_fract_y
  _atom_site_fract_z
  _atom_site_occupancy
  H   H1        1.0  0.17804  0.16909  0.09699  1.0000
  C   C1        1.0  0.03037  0.21750  0.31806  1.0000
  S   S1        1.0  0.08819  0.21582  0.12578  1.0000
  C   C2        1.0  0.13208  0.34777  0.09130  1.0000
  H   H2        1.0  0.14309  0.02765  0.23865  1.0000
  C   C3        1.0  0.11035  0.20710  0.07988  1.0000
  H   H3        1.0  0.02889  0.09874  0.27933  1.0000
  Fe  Fe1       1.0  0.02741  0.27434  0.13325  1.0000
  C   C4        1.0  0.15705  0.18376  0.07364  1.0000
  H   H4        1.0  0.14130  0.15464  0.30453  1.0000
  H   H5        1.0  0.05203  0.09862  0.23196  1.0000
  C   C5        1.0  0.06666  0.18838  0.29840  1.0000
  C   C6        1.0  0.17805  0.41777  0.06439  1.0000
  C   C7        1.0  0.08330  0.22567  0.04960  1.0000
  N   N1        1.0  0.08339  0.03021  0.03901  1.0000
  H   H6        1.0  0.00803  0.09952  0.35881  1.0000
  C   C8        1.0  0.48316  0.21141  0.35241  1.0000
  C   C9        1.0  0.05871  0.11416  0.26025  1.0000
  C   C10       1.0  0.08950  0.05212  0.07671  1.0000
  H   H7        1.0  0.21482  0.16529  0.03301  1.0000
  H   H8        1.0  0.22931  0.33353  0.07910  1.0000
  H   H9        1.0  0.05741  0.04081  0.09549  1.0000
  H   H10       1.0  0.09552  0.09874  0.26962  1.0000
  H   H11       1.0  0.05626  0.45344  0.24166  1.0000
  S   S2        1.0  0.18708  0.05669  0.30790  1.0000
  H   H12       1.0  0.13745  0.17303  0.24287  1.0000
  H   H13       1.0  0.20440  0.41986  0.08835  1.0000
  S   S3        1.0  0.04869  0.45954  0.12094  1.0000
  N   N2        1.0  0.05853  0.16985  0.26005  1.0000
  H   H14       1.0  0.12483  0.03915  0.09028  1.0000
  H   H15       1.0  0.19441  0.29343  0.04879  1.0000
  S   S4        1.0  0.04075  0.33623  0.17400  1.0000
  H   H16       1.0  0.09375  0.17722  0.20556  1.0000
  H   H17       1.0  0.04672  0.24256  0.05397  1.0000
  C   C11       1.0  0.17784  0.18145  0.03747  1.0000
  C   C12       1.0  0.11200  0.17683  0.31747  1.0000
  H   H18       1.0  0.15678  0.34424  0.11610  1.0000
  H   H19       1.0  0.44495  0.20607  0.34222  1.0000
  H   H20       1.0  0.11451  0.31048  0.08643  1.0000
  H   H21       1.0  0.19790  0.43343  0.03934  1.0000
  H   H22       1.0  0.10276  0.23001  0.23567  1.0000
  H   H23       1.0  0.09222  0.09381  0.07564  1.0000
  H   H24       1.0  0.00790  0.22797  0.24177  1.0000
  H   H25       1.0  0.10129  0.37350  0.09952  1.0000
  C   C13       1.0  0.09994  0.18830  0.23510  1.0000
  N   N3        1.0  0.16037  0.36563  0.05778  1.0000
  C   C14       1.0  0.20561  0.33331  0.05362  1.0000
  H   H26       1.0  0.14611  0.44335  0.07112  1.0000
  C   C15       1.0  0.12058  0.19348  0.35373  1.0000
  H   H27       1.0  0.01070  0.10185  0.06091  1.0000
  H   H28       1.0  0.01386  0.47781  0.30143  1.0000
  C   C16       1.0  0.01802  0.44699  0.22981  1.0000
  H   H29       1.0  0.06883  0.41255  0.04951  1.0000
  C   C17       1.0  0.03926  0.23374  0.35446  1.0000
  H   H30       1.0  0.01997  0.45294  0.19909  1.0000
  C   C18       1.0  0.00992  0.18628  0.24360  1.0000
  H   H31       1.0  0.00899  0.40652  0.23440  1.0000
  H   H32       1.0  0.23053  0.34622  0.03022  1.0000
  H   H33       1.0  0.16348  0.03904  0.02836  1.0000
  Fe  Fe2       1.0  0.05633  0.40108  0.65865  1.0000
  H   H34       1.0  0.34555  0.22370  0.64645  1.0000
  C   C19       1.0  0.05899  0.12039  0.44405  1.0000
  Fe  Fe3       1.0  0.13711  0.33182  0.62793  1.0000
  S   S5        1.0  0.10333  0.26299  0.65466  1.0000
  S   S6        1.0  0.21032  0.31884  0.59665  1.0000
  H   H35       1.0  0.09856  0.16769  0.50684  1.0000
  H   H36       1.0  0.21720  0.26838  0.66859  1.0000
  S   S7        1.0  0.41322  0.09580  0.38005  1.0000
  S   S8        1.0  0.13238  0.37788  0.68031  1.0000
  S   S9        1.0  0.17913  0.19108  0.45023  1.0000
  C   C20       1.0  0.20221  0.28269  0.55621  1.0000
  C   C21       1.0  0.24100  0.25111  0.54363  1.0000
  C   C22       1.0  0.23450  0.22211  0.51130  1.0000
  C   C23       1.0  0.18979  0.22599  0.49095  1.0000
  C   C24       1.0  0.15169  0.25838  0.50320  1.0000
  C   C25       1.0  0.15737  0.28580  0.53609  1.0000
  H   H37       1.0  0.27592  0.24883  0.55896  1.0000
  H   H38       1.0  0.26422  0.19746  0.50185  1.0000
  H   H39       1.0  0.11763  0.26242  0.48711  1.0000
  H   H40       1.0  0.12765  0.31056  0.54526  1.0000
  H   H41       1.0  0.07251  0.01672  0.46233  1.0000
  H   H42       1.0  0.43143  0.11805  0.45882  1.0000
  H   H43       1.0  0.31675  0.30460  0.63020  1.0000
  H   H44       1.0  0.24070  0.20827  0.68221  1.0000
  C   C26       1.0  0.01592  0.13820  0.46389  1.0000
  C   C27       1.0  0.30860  0.31335  0.65998  1.0000
  H   H45       1.0  0.09122  0.23426  0.40047  1.0000
  H   H46       1.0  0.45788  0.22845  0.40799  1.0000
  S   S10       1.0  0.18752  0.05924  0.41720  1.0000
  H   H47       1.0  0.03356  0.23073  0.48487  1.0000
  C   C28       1.0  0.08431  0.22185  0.37222  1.0000
  Fe  Fe4       1.0  0.33082  0.08835  0.39971  1.0000
  Fe  Fe5       1.0  0.02992  0.29403  0.63454  1.0000
  Fe  Fe6       1.0  0.22886  0.06222  0.36258  1.0000
  S   S11       1.0  0.26877  0.13492  0.37465  1.0000
  Fe  Fe7       1.0  0.23106  0.12938  0.43090  1.0000
  C   C29       1.0  0.05572  0.10622  0.40666  1.0000
  C   C30       1.0  0.25058  0.24339  0.66687  1.0000
  Fe  Fe8       1.0  0.25521  0.01929  0.43887  1.0000
  H   H48       1.0  0.34177  0.33383  0.67147  1.0000
  H   H49       1.0  0.06767  0.15872  0.55059  1.0000
  H   H50       1.0  0.15551  0.18406  0.36776  1.0000
  S   S12       1.0  0.06410  0.36012  0.60395  1.0000
  S   S13       1.0  0.29621  0.08905  0.45758  1.0000
  H   H51       1.0  0.12256  0.02794  0.55281  1.0000
  H   H52       1.0  0.08904  0.09338  0.39178  1.0000
  H   H53       1.0  0.09588  0.11774  0.45656  1.0000
  N   N4        1.0  0.01798  0.15510  0.50310  1.0000
  C   C31       1.0  0.46895  0.10107  0.40698  1.0000
  S   S14       1.0  0.01995  0.47643  0.67138  1.0000
  H   H54       1.0  0.27638  0.33988  0.65922  1.0000
  C   C32       1.0  0.46748  0.11269  0.44492  1.0000
  H   H55       1.0  0.25528  0.23385  0.63685  1.0000
  C   C33       1.0  0.06761  0.14618  0.52099  1.0000
  H   H56       1.0  0.01096  0.25572  0.36895  1.0000
  H   H57       1.0  0.40292  0.01403  0.48896  1.0000
  H   H58       1.0  0.07745  0.10568  0.52096  1.0000
  H   H59       1.0  0.19044  0.02809  0.50450  1.0000
  N   N5        1.0  0.29674  0.26735  0.68209  1.0000
  C   C34       1.0  0.49030  0.22395  0.38959  1.0000
  H   H60       1.0  0.01407  0.22525  0.53274  1.0000
  H   H61       1.0  0.05421  0.02740  0.67110  1.0000
  C   C35       1.0  0.33924  0.23196  0.67653  1.0000
  S   S15       1.0  0.29330  0.01593  0.38286  1.0000
  S   S16       1.0  0.01558  0.33654  0.68710  1.0000
  H   H62       1.0  0.39401  0.02775  0.44046  1.0000
  H   H63       1.0  0.37534  0.24774  0.68734  1.0000
  C   C36       1.0  0.01010  0.10989  0.38788  1.0000
  H   H64       1.0  0.33140  0.19517  0.69045  1.0000
  C   C37       1.0  0.00803  0.20974  0.50436  1.0000
  S   S17       1.0  0.10137  0.28523  0.76508  1.0000
  Fe  Fe9       1.0  0.34179  0.10055  0.94023  1.0000
  S   S18       1.0  0.31603  0.04878  0.89460  1.0000
  S   S19       1.0  0.41878  0.09526  0.96876  1.0000
  Fe  Fe10      1.0  0.23866  0.15213  0.94535  1.0000
  S   S20       1.0  0.20658  0.10421  0.90048  1.0000
  H   H65       1.0  0.06894  0.17532  0.83210  1.0000
  Fe  Fe11      1.0  0.24462  0.04056  0.92882  1.0000
  Fe  Fe12      1.0  0.27953  0.11754  0.87051  1.0000
  S   S21       1.0  0.27466  0.13359  0.80894  1.0000
  S   S22       1.0  0.27189  0.08716  0.97642  1.0000
  S   S23       1.0  0.31028  0.17045  0.91333  1.0000
  C   C38       1.0  0.14801  0.24118  0.77672  1.0000
  C   C39       1.0  0.16072  0.23451  0.81427  1.0000
  C   C40       1.0  0.19910  0.20111  0.82441  1.0000
  C   C41       1.0  0.22476  0.17387  0.79702  1.0000
  C   C42       1.0  0.21095  0.17933  0.75960  1.0000
  C   C43       1.0  0.17268  0.21299  0.74943  1.0000
  H   H66       1.0  0.14187  0.25637  0.83548  1.0000
  H   H67       1.0  0.20980  0.19760  0.85330  1.0000
  H   H68       1.0  0.23014  0.15758  0.73852  1.0000
  H   H69       1.0  0.16223  0.21726  0.72058  1.0000
  H   H70       1.0  0.11253  0.16587  0.89325  1.0000
  H   H71       1.0  0.44939  0.08192  0.89079  1.0000
  C   C44       1.0  0.47782  0.08209  0.94674  1.0000
  S   S24       1.0  0.18009  0.20846  0.96317  1.0000
  C   C45       1.0  0.26704  0.30649  0.79684  1.0000
  H   H72       1.0  0.08358  0.23954  0.99051  1.0000
  C   C46       1.0  0.30405  0.27126  0.78858  1.0000
  H   H73       1.0  0.11739  0.31934  0.93580  1.0000
  H   H74       1.0  0.12658  0.02950  0.98755  1.0000
  C   C47       1.0  0.10712  0.33973  0.96080  1.0000
  C   C48       1.0  0.06158  0.01904  0.88328  1.0000
  H   H75       1.0  0.09697  0.08188  0.90777  1.0000
  H   H76       1.0  0.07705  0.21590  0.91255  1.0000
  H   H77       1.0  0.03646  0.36562  0.93877  1.0000
  Fe  Fe13      1.0  0.09210  0.31068  0.70502  1.0000
  H   H78       1.0  0.47816  0.20212  0.97531  1.0000
  H   H79       1.0  0.25800  0.31515  0.82558  1.0000
  C   C49       1.0  0.25016  0.31628  0.73113  1.0000
  H   H80       1.0  0.17374  0.31784  0.98814  1.0000
  C   C50       1.0  0.06156  0.36556  0.96248  1.0000
  H   H81       1.0  0.34232  0.22949  0.74746  1.0000
  C   C51       1.0  0.02909  0.10492  0.87731  1.0000
  C   C52       1.0  0.06536  0.07036  0.89097  1.0000
  C   C53       1.0  0.24009  0.32890  0.76816  1.0000
  C   C54       1.0  0.14310  0.02953  0.79880  1.0000
  C   C55       1.0  0.28772  0.28067  0.72160  1.0000
  C   C56       1.0  0.48247  0.07796  0.90806  1.0000
  C   C57       1.0  0.31437  0.25826  0.75158  1.0000
  H   H82       1.0  0.03956  0.22872  0.85299  1.0000
  H   H83       1.0  0.50208  0.19009  0.90946  1.0000
  C   C58       1.0  0.13952  0.33932  0.99138  1.0000
  H   H84       1.0  0.05629  0.07930  0.72080  1.0000
  H   H85       1.0  0.14383  0.10574  0.81781  1.0000
  N   N6        1.0  0.03188  0.15955  0.88462  1.0000
  H   H86       1.0  0.32343  0.25230  0.81107  1.0000
  C   C59       1.0  0.09820  0.09678  0.76890  1.0000
  C   C60       1.0  0.12645  0.04771  0.01538  1.0000
  H   H87       1.0  0.20986  0.35484  0.77466  1.0000
  C   C61       1.0  0.12942  0.07979  0.79727  1.0000
  C   C62       1.0  0.15196  0.20275  0.00756  1.0000
  C   C63       1.0  0.08006  0.06344  0.74206  1.0000
  C   C64       1.0  0.04836  0.39144  0.99469  1.0000
  H   H88       1.0  0.22721  0.33368  0.71002  1.0000
  H   H89       1.0  0.12503  0.08903  0.01069  1.0000
  C   C65       1.0  0.07605  0.17472  0.90743  1.0000
  C   C66       1.0  0.03534  0.04439  0.02095  1.0000
  C   C67       1.0  0.03552  0.18748  0.84875  1.0000
  C   C68       1.0  0.02083  0.02182  0.98687  1.0000
  H   H90       1.0  0.07520  0.15642  0.93542  1.0000
  C   C69       1.0  0.10416  0.22369  0.01360  1.0000
  H   H91       1.0  0.08865  0.13627  0.76729  1.0000
  C   C70       1.0  0.09306  0.01171  0.74290  1.0000
  H   H92       1.0  0.01293  0.41164  0.99601  1.0000
  C   C71       1.0  0.12695  0.36492  0.02486  1.0000
  C   C72       1.0  0.08060  0.39148  0.02534  1.0000
  H   H93       1.0  0.16812  0.01676  0.82065  1.0000
  H   H94       1.0  0.08159  0.64146  0.11942  1.0000
  Fe  Fe14      1.0  0.08312  0.83726  0.18884  1.0000
  S   S25       1.0  0.11374  0.77107  0.15738  1.0000
  S   S26       1.0  0.10312  0.84749  0.24973  1.0000
  H   H95       1.0  0.35145  0.91948  0.10630  1.0000
  C   C73       1.0  0.03276  0.97221  0.34235  1.0000
  Fe  Fe15      1.0  0.02108  0.87320  0.12217  1.0000
  C   C74       1.0  0.16570  0.99781  0.29185  1.0000
  Fe  Fe16      1.0  0.12312  0.82640  0.10996  1.0000
  S   S27       1.0  0.19619  0.83841  0.07816  1.0000
  H   H96       1.0  0.39763  0.98965  0.07514  1.0000
  S   S28       1.0  0.09835  0.89292  0.14300  1.0000
  H   H97       1.0  0.18426  0.95681  0.34168  1.0000
  C   C75       1.0  0.22128  0.92216  0.03721  1.0000
  C   C76       1.0  0.12585  0.94862  0.24286  1.0000
  C   C77       1.0  0.12784  0.90549  0.26517  1.0000
  C   C78       1.0  0.14883  0.90874  0.30093  1.0000
  C   C79       1.0  0.16801  0.95470  0.31418  1.0000
  C   C80       1.0  0.05308  0.61245  0.12333  1.0000
  H   H98       1.0  0.10955  0.94662  0.21542  1.0000
  H   H99       1.0  0.15041  0.87550  0.31832  1.0000
  C   C81       1.0  0.06620  0.56143  0.12013  1.0000
  H   H100      1.0  0.10495  0.55168  0.11371  1.0000
  S   S29       1.0  0.04669  0.81023  0.08542  1.0000
  C   C82       1.0  0.02970  0.52314  0.12518  1.0000
  H   H101      1.0  0.24468  0.93265  0.06049  1.0000
  C   C83       1.0  0.08620  0.97481  0.04336  1.0000
  H   H102      1.0  0.05246  0.95981  0.05863  1.0000
  C   C84       1.0  0.14459  0.99460  0.25621  1.0000
  Fe  Fe17      1.0  0.03466  0.76011  0.13593  1.0000
  H   H103      1.0  0.06117  0.52837  0.20978  1.0000
  C   C85       1.0  0.38245  0.95913  0.05868  1.0000
  H   H104      1.0  0.05619  0.96745  0.31761  1.0000
  H   H105      1.0  0.07524  0.61775  0.20274  1.0000
  C   C86       1.0  0.19095  0.87882  0.03959  1.0000
  C   C87       1.0  0.35662  0.91965  0.07629  1.0000
  H   H106      1.0  0.12022  0.96311  0.05921  1.0000
  C   C88       1.0  0.04235  0.60423  0.21825  1.0000
  C   C89       1.0  0.03368  0.55266  0.22265  1.0000
  H   H107      1.0  0.40696  0.96021  0.32197  1.0000
  C   C90       1.0  0.00797  0.63865  0.23240  1.0000
  C   C91       1.0  0.33629  0.88088  0.05519  1.0000
  H   H108      1.0  0.31455  0.85109  0.06886  1.0000
  H   H109      1.0  0.33847  0.89644  0.31891  1.0000
  H   H110      1.0  0.01430  0.67854  0.22782  1.0000
  C   C92       1.0  0.39324  0.94215  0.34733  1.0000
  C   C93       1.0  0.35449  0.90650  0.34557  1.0000
  H   H111      1.0  0.12987  0.86722  0.56066  1.0000
  Fe  Fe18      1.0  0.02982  0.87708  0.60638  1.0000
  S   S30       1.0  0.07251  0.94898  0.59321  1.0000
  C   C94       1.0  0.46993  0.96140  0.45035  1.0000
  H   H112      1.0  0.41886  0.87631  0.47436  1.0000
  C   C95       1.0  0.04193  0.99069  0.47208  1.0000
  C   C96       1.0  0.40497  0.91407  0.48242  1.0000
  C   C97       1.0  0.06290  0.58917  0.59964  1.0000
  S   S31       1.0  0.24796  0.94736  0.47188  1.0000
  H   H113      1.0  0.13818  0.99014  0.67737  1.0000
  S   S32       1.0  0.04781  0.81809  0.64917  1.0000
  H   H114      1.0  0.47972  0.99571  0.43387  1.0000
  H   H115      1.0  0.36402  0.91096  0.48999  1.0000
  H   H116      1.0  0.11907  0.94756  0.43730  1.0000
  C   C98       1.0  0.38863  0.99842  0.46233  1.0000
  C   C99       1.0  0.05113  0.95808  0.37729  1.0000
  N   N7        1.0  0.41442  0.95144  0.45210  1.0000
  C   C100      1.0  0.17731  0.99299  0.51664  1.0000
  C   C101      1.0  0.12145  0.94754  0.55971  1.0000
  H   H117      1.0  0.01358  0.89588  0.49161  1.0000
  C   C102      1.0  0.41286  0.95644  0.38175  1.0000
  C   C103      1.0  0.19950  0.94786  0.50580  1.0000
  C   C104      1.0  0.18259  0.90258  0.52197  1.0000
  C   C105      1.0  0.14307  0.90232  0.54852  1.0000
  C   C106      1.0  0.05863  0.54166  0.61702  1.0000
  C   C107      1.0  0.02868  0.53560  0.64910  1.0000
  H   H118      1.0  0.19964  0.86757  0.51364  1.0000
  N   N8        1.0  0.03804  0.94647  0.44738  1.0000
  H   H119      1.0  0.09907  0.90862  0.47519  1.0000
  H   H120      1.0  0.33555  0.88336  0.43712  1.0000
  C   C108      1.0  0.03752  0.63108  0.61417  1.0000
  H   H121      1.0  0.05065  0.97939  0.50125  1.0000
  C   C109      1.0  0.39482  0.93456  0.41564  1.0000
  H   H122      1.0  0.44079  0.98629  0.38142  1.0000
  C   C110      1.0  0.35422  0.89937  0.41288  1.0000
  H   H123      1.0  0.02426  0.96792  0.66835  1.0000
  H   H124      1.0  0.10736  0.93076  0.67042  1.0000
  H   H125      1.0  0.07862  0.50990  0.60567  1.0000
  C   C111      1.0  0.02080  0.96268  0.41007  1.0000
  H   H126      1.0  0.48605  0.96875  0.47836  1.0000
  H   H127      1.0  0.08635  0.59365  0.57494  1.0000
  C   C112      1.0  0.08819  0.92161  0.44687  1.0000
  H   H128      1.0  0.08903  0.94321  0.37769  1.0000
  C   C113      1.0  0.13893  0.99286  0.54396  1.0000
  H   H129      1.0  0.42397  0.92489  0.50876  1.0000
  H   H130      1.0  0.34713  0.99213  0.46556  1.0000
  H   H131      1.0  0.30334  0.85909  0.37695  1.0000
  C   C114      1.0  0.33485  0.88537  0.37829  1.0000
  H   H132      1.0  0.49043  0.92909  0.43803  1.0000
  S   S33       1.0  0.04420  0.69005  0.59122  1.0000
  H   H133      1.0  0.08806  0.88781  0.42879  1.0000
  Fe  Fe19      1.0  0.00940  0.76388  0.61004  1.0000
  C   C115      1.0  0.11921  0.95813  0.69213  1.0000
  C   C116      1.0  0.03769  0.99655  0.68854  1.0000
  H   H134      1.0  0.13643  0.83252  0.01145  1.0000
  C   C117      1.0  0.19242  0.93762  0.97427  1.0000
  H   H135      1.0  0.02070  0.94278  0.75276  1.0000
  C   C118      1.0  0.16079  0.89525  0.97710  1.0000
  H   H136      1.0  0.32336  0.85147  0.00131  1.0000
  H   H137      1.0  0.13767  0.88437  0.95372  1.0000
  C   C119      1.0  0.32213  0.92468  0.93977  1.0000
  H   H138      1.0  0.37191  0.83953  0.95030  1.0000
  H   H139      1.0  0.03433  0.90496  0.71270  1.0000
  C   C120      1.0  0.34157  0.88149  0.01640  1.0000
  N   N9        1.0  0.37309  0.92040  0.95635  1.0000
  C   C121      1.0  0.36823  0.92076  0.99751  1.0000
  H   H140      1.0  0.44388  0.96172  0.95265  1.0000
  H   H141      1.0  0.29644  0.89311  0.94796  1.0000
  H   H142      1.0  0.32373  0.92555  0.90877  1.0000
  H   H143      1.0  0.07854  0.90820  0.74923  1.0000
  C   C122      1.0  0.39629  0.87274  0.94394  1.0000
  H   H144      1.0  0.43343  0.86688  0.95767  1.0000
  H   H145      1.0  0.40292  0.87245  0.91323  1.0000
  H   H146      1.0  0.13805  0.95753  0.77394  1.0000
  C   C123      1.0  0.38828  0.95998  0.01989  1.0000
  H   H147      1.0  0.08987  0.99341  0.89387  1.0000
  S   S34       1.0  0.19492  0.97154  0.93214  1.0000
  C   C124      1.0  0.40488  0.96218  0.94114  1.0000
  N   N10       1.0  0.07541  0.97539  0.71464  1.0000
  H   H148      1.0  0.01850  0.96075  0.85648  1.0000
  C   C125      1.0  0.22203  0.95157  0.00463  1.0000
  H   H149      1.0  0.24631  0.98432  0.00288  1.0000
  C   C126      1.0  0.05138  0.93118  0.73323  1.0000
  H   H150      1.0  0.40875  0.96060  0.91024  1.0000
  H   H151      1.0  0.14809  0.93915  0.70940  1.0000
  H   H152      1.0  0.04424  0.99403  0.97353  1.0000
  H   H153      1.0  0.30340  0.95976  0.94898  1.0000
  C   C127      1.0  0.02161  0.00058  0.86215  1.0000
  C   C128      1.0  0.12552  0.99593  0.77197  1.0000
  H   H154      1.0  0.38785  0.99921  0.94732  1.0000
  C   C129      1.0  0.15982  0.86604  0.00980  1.0000
  H   H155      1.0  0.08860  0.95496  0.01636  1.0000
  H   H156      1.0  0.40819  0.99211  0.00817  1.0000
  Fe  Fe20      1.0  0.92123  0.30879  0.11777  1.0000
  S   S35       1.0  0.95240  0.25301  0.15848  1.0000
  S   S36       1.0  0.84871  0.28468  0.09019  1.0000
  H   H157      1.0  0.58897  0.22370  0.26692  1.0000
  H   H158      1.0  0.58413  0.15634  0.27423  1.0000
  Fe  Fe21      1.0  0.96241  0.31944  0.19553  1.0000
  S   S37       1.0  0.95021  0.31916  0.25804  1.0000
  C   C130      1.0  0.52479  0.20336  0.32884  1.0000
  S   S38       1.0  0.92563  0.37466  0.15698  1.0000
  S   S39       1.0  0.77762  0.17594  0.32496  1.0000
  H   H159      1.0  0.99485  0.22850  0.30596  1.0000
  C   C131      1.0  0.90227  0.27910  0.27634  1.0000
  C   C132      1.0  0.87187  0.25010  0.25298  1.0000
  C   C133      1.0  0.83399  0.21849  0.26825  1.0000
  C   C134      1.0  0.82627  0.21545  0.30695  1.0000
  C   C135      1.0  0.85687  0.24429  0.33034  1.0000
  C   C136      1.0  0.89470  0.27600  0.31506  1.0000
  H   H160      1.0  0.87708  0.25234  0.22310  1.0000
  H   H161      1.0  0.81046  0.19641  0.24994  1.0000
  H   H162      1.0  0.67766  0.14031  0.31452  1.0000
  H   H163      1.0  0.91794  0.29839  0.33335  1.0000
  H   H164      1.0  0.97118  0.42624  0.29255  1.0000
  H   H165      1.0  0.94659  0.48679  0.30259  1.0000
  H   H166      1.0  0.78653  0.20597  0.06011  1.0000
  H   H167      1.0  0.92419  0.28436  0.03119  1.0000
  C   C137      1.0  0.81766  0.21269  0.04086  1.0000
  H   H168      1.0  0.61731  0.11843  0.33184  1.0000
  C   C138      1.0  0.92985  0.46671  0.23086  1.0000
  C   C139      1.0  0.97769  0.46726  0.28773  1.0000
  H   H169      1.0  0.63955  0.27579  0.31404  1.0000
  H   H170      1.0  0.64321  0.18437  0.26150  1.0000
  H   H171      1.0  0.89784  0.48608  0.24472  1.0000
  C   C140      1.0  0.65742  0.23926  0.32084  1.0000
  C   C141      1.0  0.85505  0.24840  0.04959  1.0000
  H   H172      1.0  0.92140  0.42571  0.23334  1.0000
  C   C142      1.0  0.57522  0.20768  0.34214  1.0000
  S   S40       1.0  0.99596  0.32598  0.08970  1.0000
  C   C143      1.0  0.60827  0.19021  0.27858  1.0000
  N   N11       1.0  0.62025  0.19722  0.31859  1.0000
  H   H173      1.0  0.92916  0.47695  0.20074  1.0000
  H   H174      1.0  0.67468  0.24246  0.34882  1.0000
  H   H175      1.0  0.69014  0.23408  0.30141  1.0000
  N   N12       1.0  0.97950  0.47973  0.24738  1.0000
  C   C144      1.0  0.64441  0.15063  0.33209  1.0000
  H   H176      1.0  0.51627  0.19267  0.30065  1.0000
  H   H177      1.0  0.93288  0.12255  0.02947  1.0000
  H   H178      1.0  0.97664  0.17223  0.25998  1.0000
  C   C145      1.0  0.00268  0.08186  0.03554  1.0000
  Fe  Fe22      1.0  0.00355  0.38733  0.13257  1.0000
  H   H179      1.0  0.00519  0.17218  0.21466  1.0000
  Fe  Fe23      1.0  0.80679  0.10428  0.45404  1.0000
  S   S41       1.0  0.75775  0.14632  0.49422  1.0000
  C   C146      1.0  0.77190  0.01533  0.65783  1.0000
  S   S42       1.0  0.71903  0.21298  0.42270  1.0000
  Fe  Fe24      1.0  0.78365  0.21508  0.46291  1.0000
  S   S43       1.0  0.81712  0.28527  0.48802  1.0000
  Fe  Fe25      1.0  0.69678  0.13996  0.45068  1.0000
  S   S44       1.0  0.61632  0.12490  0.47240  1.0000
  S   S45       1.0  0.83601  0.17369  0.42523  1.0000
  S   S46       1.0  0.74427  0.09178  0.41264  1.0000
  C   C147      1.0  0.88366  0.41946  0.59904  1.0000
  C   C148      1.0  0.56024  0.11428  0.44670  1.0000
  H   H180      1.0  0.77041  0.04263  0.63422  1.0000
  H   H181      1.0  0.82372  0.41478  0.55695  1.0000
  H   H182      1.0  0.98368  0.44637  0.60183  1.0000
  C   C149      1.0  0.88377  0.48989  0.55331  1.0000
  C   C150      1.0  0.86284  0.27146  0.52177  1.0000
  C   C151      1.0  0.89950  0.30743  0.53140  1.0000
  C   C152      1.0  0.93456  0.29709  0.55965  1.0000
  C   C153      1.0  0.93268  0.25082  0.57831  1.0000
  C   C154      1.0  0.89665  0.21478  0.56818  1.0000
  C   C155      1.0  0.86212  0.22492  0.53987  1.0000
  H   H183      1.0  0.90035  0.34341  0.51732  1.0000
  H   H184      1.0  0.73254  0.01149  0.66892  1.0000
  H   H185      1.0  0.89515  0.17892  0.58248  1.0000
  H   H186      1.0  0.83415  0.19704  0.53275  1.0000
  H   H187      1.0  0.61781  0.22187  0.39289  1.0000
  H   H188      1.0  0.85097  0.24274  0.36017  1.0000
  H   H189      1.0  0.96256  0.32493  0.56722  1.0000
  N   N13       1.0  0.90757  0.46736  0.58674  1.0000
  C   C156      1.0  0.90340  0.39258  0.62988  1.0000
  C   C157      1.0  0.97015  0.14158  0.44376  1.0000
  H   H190      1.0  0.59773  0.09562  0.39549  1.0000
  H   H191      1.0  0.98087  0.49400  0.56733  1.0000
  H   H192      1.0  0.54462  0.23607  0.43284  1.0000
  C   C158      1.0  0.82064  0.35165  0.59268  1.0000
  H   H193      1.0  0.89976  0.32569  0.66396  1.0000
  H   H194      1.0  0.93966  0.13671  0.51693  1.0000
  H   H195      1.0  0.51771  0.08532  0.36006  1.0000
  S   S47       1.0  0.87321  0.05731  0.47225  1.0000
  H   H196      1.0  0.00630  0.01245  0.47314  1.0000
  C   C159      1.0  0.84168  0.32585  0.62253  1.0000
  Fe  Fe26      1.0  0.77028  0.16556  0.38744  1.0000
  C   C160      1.0  0.53912  0.22833  0.40350  1.0000
  H   H197      1.0  0.93608  0.15548  0.45685  1.0000
  S   S48       1.0  0.97590  0.23526  0.61323  1.0000
  H   H198      1.0  0.93168  0.13000  0.39184  1.0000
  C   C161      1.0  0.56162  0.10093  0.40914  1.0000
  H   H199      1.0  0.96839  0.21876  0.49669  1.0000
  H   H200      1.0  0.82692  0.28925  0.63060  1.0000
  H   H201      1.0  0.93552  0.40675  0.64520  1.0000
  C   C162      1.0  0.97888  0.12847  0.52596  1.0000
  C   C163      1.0  0.88284  0.34636  0.64118  1.0000
  H   H202      1.0  0.96591  0.42975  0.55557  1.0000
  H   H203      1.0  0.78957  0.33476  0.57749  1.0000
  H   H204      1.0  0.51153  0.12915  0.49381  1.0000
  H   H205      1.0  0.91633  0.01320  0.36818  1.0000
  C   C164      1.0  0.51294  0.11916  0.46465  1.0000
  C   C165      1.0  0.51622  0.09459  0.38934  1.0000
  C   C166      1.0  0.84114  0.39777  0.58092  1.0000
  H   H206      1.0  0.98366  0.08713  0.52455  1.0000
  C   C167      1.0  0.96732  0.12735  0.40642  1.0000
  H   H207      1.0  0.79607  0.03274  0.67962  1.0000
  H   H208      1.0  0.65858  0.15443  0.36103  1.0000
  C   C168      1.0  0.58096  0.22013  0.38027  1.0000
  H   H209      1.0  0.98055  0.13977  0.55580  1.0000
  C   C169      1.0  0.96168  0.45897  0.57738  1.0000
  H   H210      1.0  0.84335  0.49909  0.55868  1.0000
  H   H211      1.0  0.92302  0.49164  0.64298  1.0000
  H   H212      1.0  0.88623  0.46430  0.52894  1.0000
  H   H213      1.0  0.84285  0.00510  0.60740  1.0000
  H   H214      1.0  0.94157  0.00411  0.51829  1.0000
  S   S49       1.0  0.86128  0.16813  0.93749  1.0000
  C   C170      1.0  0.56937  0.06873  0.95207  1.0000
  S   S50       1.0  0.84075  0.03170  0.79422  1.0000
  H   H215      1.0  0.69728  0.16159  0.98361  1.0000
  H   H216      1.0  0.97994  0.15346  0.93115  1.0000
  C   C171      1.0  0.85967  0.19576  0.98188  1.0000
  Fe  Fe27      1.0  0.81710  0.09812  0.92314  1.0000
  C   C172      1.0  0.51772  0.20426  0.96697  1.0000
  H   H217      1.0  0.70264  0.25292  0.97930  1.0000
  C   C173      1.0  0.94385  0.07024  0.98499  1.0000
  C   C174      1.0  0.89738  0.23090  0.99086  1.0000
  H   H218      1.0  0.58992  0.19001  0.88991  1.0000
  H   H219      1.0  0.95066  0.17003  0.88813  1.0000
  H   H220      1.0  0.53355  0.06752  0.86149  1.0000
  H   H221      1.0  0.95945  0.10839  0.84493  1.0000
  H   H222      1.0  0.92776  0.23891  0.97125  1.0000
  N   N14       1.0  0.67589  0.20458  0.93502  1.0000
  C   C175      1.0  0.70215  0.25048  0.94841  1.0000
  C   C176      1.0  0.69931  0.16030  0.95269  1.0000
  C   C177      1.0  0.53034  0.06993  0.89150  1.0000
  C   C178      1.0  0.62143  0.20563  0.94524  1.0000
  H   H223      1.0  0.54435  0.21580  0.02255  1.0000
  H   H224      1.0  0.79191  0.15787  0.00106  1.0000
  C   C179      1.0  0.98550  0.17536  0.90485  1.0000
  C   C180      1.0  0.55509  0.21162  0.99351  1.0000
  H   H225      1.0  0.51831  0.08019  0.99861  1.0000
  C   C181      1.0  0.60620  0.21228  0.98294  1.0000
  H   H226      1.0  0.74280  0.25141  0.93961  1.0000
  H   H227      1.0  0.68390  0.28495  0.93742  1.0000
  Fe  Fe28      1.0  0.81170  0.03217  0.85367  1.0000
  C   C182      1.0  0.82048  0.18566  0.00737  1.0000
  H   H228      1.0  0.67993  0.12505  0.94393  1.0000
  H   H229      1.0  0.98676  0.21583  0.91229  1.0000
  C   C183      1.0  0.57412  0.06552  0.91329  1.0000
  C   C184      1.0  0.68530  0.20131  0.89420  1.0000
  H   H230      1.0  0.90836  0.07934  0.97181  1.0000
  H   H231      1.0  0.63380  0.21683  0.00470  1.0000
  Fe  Fe29      1.0  0.71714  0.04531  0.90388  1.0000
  S   S51       1.0  0.76831  0.09923  0.87257  1.0000
  S   S52       1.0  0.76363  0.04891  0.95668  1.0000
  H   H232      1.0  0.74010  0.15743  0.94492  1.0000
  H   H233      1.0  0.66760  0.23303  0.87899  1.0000
  H   H234      1.0  0.95382  0.01889  0.83244  1.0000
  H   H235      1.0  0.72653  0.20246  0.88730  1.0000
  S   S53       1.0  0.63346  0.05768  0.89016  1.0000
  C   C185      1.0  0.52144  0.07695  0.96865  1.0000
  C   C186      1.0  0.58228  0.19773  0.91891  1.0000
  C   C187      1.0  0.98531  0.03334  0.84855  1.0000
  C   C188      1.0  0.53129  0.19753  0.92978  1.0000
  H   H236      1.0  0.60258  0.06542  0.96924  1.0000
  S   S54       1.0  0.86466  0.03544  0.90157  1.0000
  H   H237      1.0  0.67074  0.16520  0.88270  1.0000
  C   C189      1.0  0.98888  0.08470  0.85593  1.0000
  C   C190      1.0  0.97547  0.03425  0.96948  1.0000
  H   H238      1.0  0.88652  0.01043  0.72391  1.0000
  C   C191      1.0  0.95765  0.09435  0.01768  1.0000
  H   H239      1.0  0.96438  0.01535  0.94412  1.0000
  C   C192      1.0  0.89550  0.25662  0.02484  1.0000
  H   H240      1.0  0.00148  0.18213  0.83120  1.0000
  H   H241      1.0  0.00364  0.01037  0.70373  1.0000
  S   S55       1.0  0.96948  0.93718  0.10623  1.0000
  H   H242      1.0  0.89030  0.99804  0.07657  1.0000
  C   C193      1.0  0.96660  0.58742  0.13657  1.0000
  H   H243      1.0  0.86442  0.71694  0.10493  1.0000
  C   C194      1.0  0.95636  0.57025  0.25680  1.0000
  C   C195      1.0  0.94017  0.93739  0.06231  1.0000
  C   C196      1.0  0.90051  0.97082  0.05561  1.0000
  H   H244      1.0  0.93233  0.83571  0.08998  1.0000
  C   C197      1.0  0.83867  0.74885  0.09891  1.0000
  C   C198      1.0  0.88589  0.77385  0.04380  1.0000
  H   H245      1.0  0.80756  0.73422  0.08120  1.0000
  H   H246      1.0  0.81742  0.84738  0.10471  1.0000
  H   H247      1.0  0.93245  0.77618  0.11306  1.0000
  C   C199      1.0  0.83026  0.83379  0.07694  1.0000
  H   H248      1.0  0.82206  0.76041  0.12613  1.0000
  H   H249      1.0  0.89411  0.82507  0.13069  1.0000
  H   H250      1.0  0.92259  0.55901  0.27201  1.0000
  C   C200      1.0  0.95374  0.90299  0.03479  1.0000
  H   H251      1.0  0.84874  0.86647  0.06259  1.0000
  H   H252      1.0  0.79555  0.82324  0.06144  1.0000
  C   C201      1.0  0.97974  0.53639  0.13339  1.0000
  N   N15       1.0  0.86578  0.79106  0.08019  1.0000
  C   C202      1.0  0.92405  0.73670  0.04231  1.0000
  H   H253      1.0  0.92788  0.59729  0.14296  1.0000
  C   C203      1.0  0.96513  0.62172  0.25176  1.0000
  C   C204      1.0  0.90786  0.80759  0.10442  1.0000
  S   S56       1.0  0.98451  0.68938  0.13632  1.0000
  S   S57       1.0  0.00321  0.82275  0.17103  1.0000
  H   H254      1.0  0.93911  0.72031  0.06744  1.0000
  H   H255      1.0  0.93847  0.64877  0.26263  1.0000
  H   H256      1.0  0.98501  0.87788  0.03917  1.0000
  H   H257      1.0  0.95113  0.50745  0.13684  1.0000
  C   C205      1.0  0.99017  0.53404  0.24215  1.0000
  C   C206      1.0  0.98421  0.99155  0.33899  1.0000
  C   C207      1.0  0.00316  0.62575  0.13164  1.0000
  H   H258      1.0  0.96996  0.00168  0.31177  1.0000
  Fe  Fe30      1.0  0.92354  0.83607  0.59397  1.0000
  S   S58       1.0  0.95447  0.89450  0.63182  1.0000
  S   S59       1.0  0.85133  0.85495  0.56417  1.0000
  H   H259      1.0  0.92300  0.54088  0.60938  1.0000
  H   H260      1.0  0.78567  0.99195  0.48668  1.0000
  C   C208      1.0  0.95401  0.99769  0.37065  1.0000
  S   S60       1.0  0.93187  0.77326  0.63557  1.0000
  H   H261      1.0  0.94712  0.98982  0.42938  1.0000
  C   C209      1.0  0.97201  0.98385  0.40569  1.0000
  H   H262      1.0  0.98767  0.65674  0.65764  1.0000
  H   H263      1.0  0.96326  0.92686  0.46882  1.0000
  C   C210      1.0  0.81796  0.97741  0.50146  1.0000
  C   C211      1.0  0.90418  0.50463  0.61718  1.0000
  H   H264      1.0  0.86411  0.51240  0.62479  1.0000
  C   C212      1.0  0.85620  0.91204  0.53951  1.0000
  C   C213      1.0  0.90203  0.93859  0.53858  1.0000
  H   H265      1.0  0.82974  0.87022  0.64242  1.0000
  Fe  Fe31      1.0  0.96917  0.83171  0.67142  1.0000
  C   C214      1.0  0.79556  0.92885  0.67652  1.0000
  C   C215      1.0  0.81396  0.93176  0.52128  1.0000
  H   H266      1.0  0.93473  0.92387  0.55267  1.0000
  H   H267      1.0  0.85896  0.94180  0.61596  1.0000
  H   H268      1.0  0.87060  0.98754  0.65133  1.0000
  H   H269      1.0  0.77838  0.91134  0.52200  1.0000
  C   C216      1.0  0.90596  0.98400  0.51889  1.0000
  H   H270      1.0  0.99564  0.87714  0.44548  1.0000
  C   C217      1.0  0.81624  0.88069  0.66978  1.0000
  H   H271      1.0  0.90293  0.52571  0.54488  1.0000
  C   C218      1.0  0.00106  0.91015  0.46394  1.0000
  C   C219      1.0  0.84336  0.97564  0.62956  1.0000
  H   H272      1.0  0.97966  0.57306  0.68823  1.0000
  H   H273      1.0  0.77367  0.91107  0.60396  1.0000
  S   S61       1.0  0.99780  0.82280  0.56521  1.0000
  C   C220      1.0  0.00297  0.57737  0.66344  1.0000
  C   C221      1.0  0.75890  0.94632  0.61629  1.0000
  H   H274      1.0  0.72032  0.93779  0.62747  1.0000
  C   C222      1.0  0.00738  0.62488  0.64615  1.0000
  N   N16       1.0  0.79231  0.96615  0.64584  1.0000
  H   H275      1.0  0.75532  0.97337  0.59267  1.0000
  C   C223      1.0  0.86432  0.00313  0.49977  1.0000
  S   S62       1.0  0.95272  0.83885  0.73328  1.0000
  C   C224      1.0  0.90688  0.89484  0.78777  1.0000
  S   S63       1.0  0.75784  0.97767  0.88108  1.0000
  H   H276      1.0  0.91233  0.86251  0.80564  1.0000
  H   H277      1.0  0.86836  0.93765  0.83033  1.0000
  C   C225      1.0  0.89230  0.97824  0.74182  1.0000
  C   C226      1.0  0.88207  0.93735  0.80181  1.0000
  S   S64       1.0  0.84272  0.91851  0.95910  1.0000
  Fe  Fe32      1.0  0.80829  0.98586  0.93105  1.0000
  H   H278      1.0  0.80949  0.82919  0.75661  1.0000
  C   C227      1.0  0.87232  0.96759  0.02268  1.0000
  H   H279      1.0  0.93518  0.87189  0.98133  1.0000
  C   C228      1.0  0.88372  0.93078  0.99638  1.0000
  H   H280      1.0  0.87382  0.79037  0.94927  1.0000
  C   C229      1.0  0.92335  0.89345  0.75048  1.0000
  C   C230      1.0  0.87418  0.97889  0.77864  1.0000
  C   C231      1.0  0.91649  0.93560  0.72775  1.0000
  H   H281      1.0  0.94128  0.72637  0.94861  1.0000
  C   C232      1.0  0.78314  0.90277  0.74183  1.0000
  C   C233      1.0  0.80437  0.85623  0.73431  1.0000
  C   C234      1.0  0.92545  0.89962  0.00200  1.0000
  C   C235      1.0  0.88751  0.77483  0.97529  1.0000
  H   H282      1.0  0.92943  0.93537  0.69930  1.0000
  H   H283      1.0  0.77178  0.91178  0.77014  1.0000
  C   C236      1.0  0.92564  0.73908  0.97490  1.0000
  H   H284      1.0  0.83880  0.82033  0.00709  1.0000
  C   C237      1.0  0.86757  0.79190  0.00911  1.0000
  C   C238      1.0  0.94373  0.71989  0.00836  1.0000
  H   H285      1.0  0.97335  0.69196  0.00812  1.0000
  H   H286      1.0  0.84031  0.99196  0.01849  1.0000
  C   C239      1.0  0.77877  0.93877  0.71354  1.0000
  H   H287      1.0  0.76348  0.97448  0.72185  1.0000
  C   C240      1.0  0.82085  0.84521  0.69835  1.0000
  H   H288      1.0  0.83855  0.80940  0.69281  1.0000
