data_image0
_chemical_formula_structural       HCHSC2HC2HSH3C6NHFeCH2SFeHS2H3CSH6CH2Fe2SHFeSHSH3NHC3H3C2H2CH2SHCHCH4CHSHFeHSCHFeH2C2H4CHCH3NHCHNCHCHSCFeS3H2CHC4H2FeCHSC2HC2HNH3CH7FeHCHSFeSH3CHCH3FeHSH3C2SC2SC2NCHCHC3HSH2CFeSHC3HC3HCNH2FeS2FeSFeHFeSCSH5CSNHCH3CH2CH4CH2SCHCH2C2H2C2H3CNH4CSH3CHSCH3CHC2HCSH2CHCH3FeCHCHC3HC5H3CH2SCH2SH3FeHC2H4CHNHFeSCH2CH2SC6H4CHCHSH2FeSFeSHCHSHC2H2FeHSHC3HCSHCSH3CHCNHSH2NSHSFeNHCFeH4C3HC2H2C2SH2CHCHCH3C2H3CNH4CH5SHSC2H3CHSHC2HCNCH2C3SHCHNHSFeSHCFeH6CH3FeSFeS2CFeS2H3CHC2HFeCHS2CH2CH5CHCH3C3HSCH3CNH4FeSHS2FeCFeHCH2SHSHC2H3FeSC6HFeH2SH2CSHSCH2CHCHNCHC
_chemical_formula_sum              "H288 C180 S72 N18 Fe36"
_cell_length_a       35.12
_cell_length_b       35.0198
_cell_length_c       29.1729
_cell_angle_alpha    88.9492
_cell_angle_beta     90.1958
_cell_angle_gamma    119.579

_space_group_name_H-M_alt    "P 1"
_space_group_IT_number       1

loop_
  _space_group_symop_operation_xyz
  'x, y, z'

loop_
  _atom_site_type_symbol
  _atom_site_label
  _atom_site_symmetry_multiplicity
  _atom_site_fract_x
  _atom_site_fract_y
  _atom_site_fract_z
  _atom_site_occupancy
  H   H1        1.0  0.37454  0.07885  0.03152  1.0000
  C   C1        1.0  0.42707  0.06401  0.12217  1.0000
  H   H2        1.0  0.40582  0.06471  0.14999  1.0000
  S   S1        1.0  0.10252  0.17957  0.11199  1.0000
  C   C2        1.0  0.12770  0.16351  0.02855  1.0000
  C   C3        1.0  0.15514  0.14413  0.09606  1.0000
  H   H3        1.0  0.15706  0.14226  0.13300  1.0000
  C   C4        1.0  0.13016  0.16124  0.07627  1.0000
  C   C5        1.0  0.17828  0.13011  0.06828  1.0000
  H   H4        1.0  0.19820  0.11781  0.08382  1.0000
  S   S2        1.0  0.08949  0.27677  0.05590  1.0000
  H   H5        1.0  0.45688  0.09705  0.12051  1.0000
  H   H6        1.0  0.35166  0.04518  0.23343  1.0000
  H   H7        1.0  0.33414  0.13357  0.14329  1.0000
  C   C6        1.0  0.33855  0.08518  0.18608  1.0000
  C   C7        1.0  0.36134  0.07832  0.22197  1.0000
  C   C8        1.0  0.39657  0.11405  0.24314  1.0000
  C   C9        1.0  0.40846  0.15693  0.22934  1.0000
  C   C10       1.0  0.38633  0.16378  0.19271  1.0000
  C   C11       1.0  0.35158  0.12798  0.17089  1.0000
  N   N1        1.0  0.40378  0.05259  0.07790  1.0000
  H   H8        1.0  0.39552  0.19696  0.18182  1.0000
  Fe  Fe1       1.0  0.06242  0.20652  0.07889  1.0000
  C   C12       1.0  0.39091  0.08572  0.06551  1.0000
  H   H9        1.0  0.41402  0.10851  0.27070  1.0000
  H   H10       1.0  0.46278  0.08437  0.03735  1.0000
  S   S3        1.0  0.29535  0.08637  0.03313  1.0000
  Fe  Fe2       1.0  0.26385  0.04043  0.09341  1.0000
  H   H11       1.0  0.43736  0.03977  0.13270  1.0000
  S   S4        1.0  0.19627  0.03035  0.07983  1.0000
  S   S5        1.0  0.29350  0.03928  0.16220  1.0000
  H   H12       1.0  0.41970  0.11941  0.06357  1.0000
  H   H13       1.0  0.36771  0.08607  0.09121  1.0000
  H   H14       1.0  0.09467  0.04990  0.05677  1.0000
  C   C13       1.0  0.43272  0.05179  0.04171  1.0000
  S   S6        1.0  0.44887  0.20244  0.25879  1.0000
  H   H15       1.0  0.04231  0.03517  0.12079  1.0000
  H   H16       1.0  0.04609  0.08354  0.05743  1.0000
  H   H17       1.0  0.44308  0.02709  0.04979  1.0000
  H   H18       1.0  0.07645  0.50150  0.49964  1.0000
  H   H19       1.0  0.49840  0.45021  0.43274  1.0000
  H   H20       1.0  0.13275  0.36174  0.51949  1.0000
  C   C14       1.0  0.05388  0.47118  0.51724  1.0000
  H   H21       1.0  0.22882  0.47484  0.51798  1.0000
  H   H22       1.0  0.25634  0.08305  0.35599  1.0000
  Fe  Fe3       1.0  0.52793  0.24380  0.40874  1.0000
  Fe  Fe4       1.0  0.47925  0.19345  0.32382  1.0000
  S   S7        1.0  0.45657  0.20330  0.39228  1.0000
  H   H23       1.0  0.15828  0.44937  0.47426  1.0000
  Fe  Fe5       1.0  0.46338  0.14541  0.41592  1.0000
  S   S8        1.0  0.40679  0.09092  0.45615  1.0000
  H   H24       1.0  0.53642  0.32176  0.35556  1.0000
  S   S9        1.0  0.48130  0.13282  0.34594  1.0000
  H   H25       1.0  0.36498  0.13998  0.41267  1.0000
  H   H26       1.0  0.51024  0.50787  0.48879  1.0000
  H   H27       1.0  0.18469  0.39768  0.49259  1.0000
  N   N2        1.0  0.32370  0.09880  0.35924  1.0000
  H   H28       1.0  0.31998  0.08939  0.43254  1.0000
  C   C15       1.0  0.41923  0.06404  0.50070  1.0000
  C   C16       1.0  0.46236  0.07925  0.51473  1.0000
  C   C17       1.0  0.14180  0.44210  0.50836  1.0000
  H   H29       1.0  0.26476  0.03905  0.37676  1.0000
  H   H30       1.0  0.33227  0.12342  0.28971  1.0000
  H   H31       1.0  0.27117  0.05356  0.31675  1.0000
  C   C18       1.0  0.33844  0.13547  0.32548  1.0000
  C   C19       1.0  0.32994  0.11609  0.40616  1.0000
  H   H32       1.0  0.32117  0.15454  0.33024  1.0000
  H   H33       1.0  0.38521  0.09956  0.35714  1.0000
  C   C20       1.0  0.34955  0.07632  0.35342  1.0000
  H   H34       1.0  0.34076  0.04977  0.37973  1.0000
  H   H35       1.0  0.31081  0.13310  0.41214  1.0000
  S   S10       1.0  0.53291  0.18691  0.43861  1.0000
  H   H36       1.0  0.37424  0.15885  0.32829  1.0000
  C   C21       1.0  0.27686  0.06720  0.35193  1.0000
  H   H37       1.0  0.14167  0.47234  0.51912  1.0000
  C   C22       1.0  0.53367  0.46023  0.43581  1.0000
  H   H38       1.0  0.34439  0.06127  0.31915  1.0000
  H   H39       1.0  0.53678  0.43864  0.46232  1.0000
  H   H40       1.0  0.48887  0.10761  0.49789  1.0000
  H   H41       1.0  0.10699  0.41623  0.50370  1.0000
  C   C23       1.0  0.38518  0.02704  0.52292  1.0000
  H   H42       1.0  0.42860  0.08358  0.75078  1.0000
  S   S11       1.0  0.15607  0.44539  0.70851  1.0000
  H   H43       1.0  0.15534  0.40596  0.61294  1.0000
  Fe  Fe6       1.0  0.10571  0.46021  0.67792  1.0000
  H   H44       1.0  0.44693  0.12228  0.67307  1.0000
  S   S12       1.0  0.09590  0.48802  0.74264  1.0000
  C   C24       1.0  0.06413  0.46160  0.56097  1.0000
  H   H45       1.0  0.44631  0.07511  0.64936  1.0000
  Fe  Fe7       1.0  0.20449  0.51361  0.68377  1.0000
  H   H46       1.0  0.33603  0.06009  0.72592  1.0000
  H   H47       1.0  0.41239  0.09492  0.62498  1.0000
  C   C25       1.0  0.13945  0.41637  0.58623  1.0000
  C   C26       1.0  0.40830  0.05266  0.73201  1.0000
  H   H48       1.0  0.38215  0.02906  0.75587  1.0000
  H   H49       1.0  0.22661  0.45602  0.57622  1.0000
  H   H50       1.0  0.20853  0.49448  0.56292  1.0000
  H   H51       1.0  0.09458  0.48433  0.57673  1.0000
  C   C27       1.0  0.47138  0.05784  0.55084  1.0000
  H   H52       1.0  0.13726  0.44456  0.60004  1.0000
  C   C28       1.0  0.42529  0.08962  0.65800  1.0000
  H   H53       1.0  0.50488  0.07006  0.56160  1.0000
  H   H54       1.0  0.42980  0.03860  0.72382  1.0000
  H   H55       1.0  0.34835  0.08755  0.67079  1.0000
  N   N3        1.0  0.38951  0.06060  0.68988  1.0000
  H   H56       1.0  0.10526  0.38901  0.58207  1.0000
  C   C29       1.0  0.16616  0.38987  0.52551  1.0000
  H   H57       1.0  0.18266  0.37860  0.55063  1.0000
  N   N4        1.0  0.16410  0.42831  0.54249  1.0000
  C   C30       1.0  0.20894  0.46491  0.55006  1.0000
  H   H58       1.0  0.38357  0.11348  0.71872  1.0000
  C   C31       1.0  0.36322  0.08143  0.70185  1.0000
  H   H59       1.0  0.04737  0.49715  0.64231  1.0000
  S   S13       1.0  0.04736  0.40967  0.63873  1.0000
  C   C32       1.0  0.04177  0.52250  0.65847  1.0000
  Fe  Fe8       1.0  0.15042  0.47899  0.77104  1.0000
  S   S14       1.0  0.15459  0.52564  0.64810  1.0000
  S   S15       1.0  0.06623  0.26384  0.91844  1.0000
  S   S16       1.0  0.20681  0.11797  0.98494  1.0000
  H   H60       1.0  0.20425  0.29064  0.89621  1.0000
  H   H61       1.0  0.14967  0.15218  0.96382  1.0000
  C   C33       1.0  0.15122  0.14995  0.00075  1.0000
  H   H62       1.0  0.12247  0.37881  0.79853  1.0000
  C   C34       1.0  0.11197  0.39521  0.91124  1.0000
  C   C35       1.0  0.11419  0.37132  0.83448  1.0000
  C   C36       1.0  0.08568  0.31801  0.89791  1.0000
  C   C37       1.0  0.18208  0.34044  0.98287  1.0000
  H   H63       1.0  0.21381  0.34610  0.89807  1.0000
  H   H64       1.0  0.09051  0.30193  0.82794  1.0000
  Fe  Fe9       1.0  0.04784  0.24921  0.99341  1.0000
  C   C38       1.0  0.12267  0.40520  0.86461  1.0000
  H   H65       1.0  0.17866  0.24290  0.96654  1.0000
  S   S17       1.0  0.14863  0.46054  0.84595  1.0000
  C   C39       1.0  0.24248  0.32628  0.97619  1.0000
  C   C40       1.0  0.09296  0.35167  0.92777  1.0000
  H   H66       1.0  0.08462  0.34438  0.96376  1.0000
  C   C41       1.0  0.09609  0.32786  0.85122  1.0000
  C   C42       1.0  0.16839  0.26584  0.98045  1.0000
  H   H67       1.0  0.16941  0.26380  0.01859  1.0000
  N   N5        1.0  0.19662  0.31121  0.96299  1.0000
  H   H68       1.0  0.10795  0.17596  0.01310  1.0000
  H   H69       1.0  0.11836  0.42132  0.93463  1.0000
  H   H70       1.0  0.13355  0.25321  0.97068  1.0000
  C   C43       1.0  0.19345  0.31223  0.91246  1.0000
  H   H71       1.0  0.26469  0.36051  0.96373  1.0000
  H   H72       1.0  0.15915  0.30074  0.90143  1.0000
  H   H73       1.0  0.25448  0.30489  0.96174  1.0000
  H   H74       1.0  0.24584  0.32563  0.01416  1.0000
  H   H75       1.0  0.14724  0.32907  0.97457  1.0000
  H   H76       1.0  0.20158  0.37473  0.96932  1.0000
  H   H77       1.0  0.18483  0.34127  0.02092  1.0000
  Fe  Fe10      1.0  0.22661  0.07099  0.01589  1.0000
  H   H78       1.0  0.41576  0.04315  0.00792  1.0000
  C   C44       1.0  0.17669  0.13341  0.02057  1.0000
  H   H79       1.0  0.07465  0.02711  0.00148  1.0000
  S   S18       1.0  0.25128  0.98071  0.05474  1.0000
  Fe  Fe11      1.0  0.18695  0.97469  0.03595  1.0000
  S   S19       1.0  0.12616  0.90863  0.04036  1.0000
  H   H80       1.0  0.34584  0.99931  0.04923  1.0000
  H   H81       1.0  0.37254  0.98297  0.09150  1.0000
  H   H82       1.0  0.34137  0.00833  0.10882  1.0000
  C   C45       1.0  0.06813  0.02117  0.03900  1.0000
  H   H83       1.0  0.07114  0.99184  0.04859  1.0000
  C   C46       1.0  0.36420  0.00886  0.08207  1.0000
  H   H84       1.0  0.35174  0.01489  0.51206  1.0000
  H   H85       1.0  0.45454  0.79963  0.51891  1.0000
  H   H86       1.0  0.52225  0.52698  0.40550  1.0000
  Fe  Fe12      1.0  0.14923  0.55255  0.71514  1.0000
  H   H87       1.0  0.26806  0.67487  0.74672  1.0000
  S   S20       1.0  0.14427  0.61389  0.71995  1.0000
  H   H88       1.0  0.20684  0.62235  0.65047  1.0000
  H   H89       1.0  0.28139  0.53625  0.74044  1.0000
  H   H90       1.0  0.06373  0.60626  0.67389  1.0000
  C   C47       1.0  0.21335  0.65477  0.65953  1.0000
  C   C48       1.0  0.18780  0.65987  0.69293  1.0000
  S   S21       1.0  0.20332  0.54639  0.74854  1.0000
  C   C49       1.0  0.33524  0.67564  0.70224  1.0000
  C   C50       1.0  0.52274  0.87412  0.70360  1.0000
  S   S22       1.0  0.28093  0.93194  0.75851  1.0000
  C   C51       1.0  0.45081  0.77033  0.63114  1.0000
  C   C52       1.0  0.08685  0.57668  0.60116  1.0000
  N   N6        1.0  0.44601  0.79509  0.59212  1.0000
  C   C53       1.0  0.40015  0.78576  0.58982  1.0000
  H   H91       1.0  0.33316  0.99581  0.69021  1.0000
  C   C54       1.0  0.31371  0.55753  0.67479  1.0000
  H   H92       1.0  0.42913  0.73432  0.62771  1.0000
  C   C55       1.0  0.25612  0.73407  0.64898  1.0000
  C   C56       1.0  0.23109  0.73918  0.68294  1.0000
  C   C57       1.0  0.24697  0.69182  0.63704  1.0000
  H   H93       1.0  0.23757  0.77167  0.69186  1.0000
  S   S23       1.0  0.29932  0.77994  0.62147  1.0000
  H   H94       1.0  0.26613  0.68775  0.61059  1.0000
  H   H95       1.0  0.17687  0.70616  0.73024  1.0000
  C   C58       1.0  0.19660  0.70209  0.70447  1.0000
  Fe  Fe13      1.0  0.50359  0.67163  0.72136  1.0000
  S   S24       1.0  0.43904  0.63122  0.75832  1.0000
  H   H96       1.0  0.42404  0.62242  0.65982  1.0000
  C   C59       1.0  0.39145  0.60241  0.72539  1.0000
  C   C60       1.0  0.35105  0.57787  0.74789  1.0000
  C   C61       1.0  0.31227  0.55551  0.72270  1.0000
  H   H97       1.0  0.46665  0.85406  0.63002  1.0000
  C   C62       1.0  0.35414  0.58163  0.65219  1.0000
  C   C63       1.0  0.39297  0.60415  0.67744  1.0000
  C   C64       1.0  0.34985  0.74312  0.73823  1.0000
  H   H98       1.0  0.35547  0.58302  0.61512  1.0000
  C   C65       1.0  0.47542  0.84263  0.59854  1.0000
  N   N7        1.0  0.04368  0.55518  0.62441  1.0000
  H   H99       1.0  0.32632  0.74667  0.71526  1.0000
  H   H100      1.0  0.50530  0.77707  0.75019  1.0000
  Fe  Fe14      1.0  0.39868  0.93818  0.65987  1.0000
  S   S25       1.0  0.39645  0.94423  0.73632  1.0000
  S   S26       1.0  0.45042  0.99644  0.61957  1.0000
  Fe  Fe15      1.0  0.32705  0.84179  0.66242  1.0000
  S   S27       1.0  0.31733  0.84093  0.73834  1.0000
  Fe  Fe16      1.0  0.32364  0.90753  0.72707  1.0000
  H   H101      1.0  0.11399  0.59320  0.62616  1.0000
  Fe  Fe17      1.0  0.39058  0.87752  0.74052  1.0000
  S   S28       1.0  0.50755  0.70650  0.65504  1.0000
  C   C66       1.0  0.39426  0.00526  0.55872  1.0000
  S   S29       1.0  0.40008  0.87505  0.66534  1.0000
  H   H102      1.0  0.37700  0.75043  0.58365  1.0000
  H   H103      1.0  0.36796  0.69074  0.68545  1.0000
  H   H104      1.0  0.37965  0.00126  0.65948  1.0000
  H   H105      1.0  0.47364  0.86250  0.56927  1.0000
  H   H106      1.0  0.39548  0.80519  0.56194  1.0000
  C   C67       1.0  0.49019  0.87820  0.72716  1.0000
  S   S30       1.0  0.32600  0.90488  0.64992  1.0000
  N   N8        1.0  0.33707  0.69649  0.74639  1.0000
  H   H107      1.0  0.48595  0.90638  0.72059  1.0000
  C   C68       1.0  0.29343  0.67346  0.76862  1.0000
  H   H108      1.0  0.36789  0.97641  0.57506  1.0000
  H   H109      1.0  0.38981  0.79420  0.62236  1.0000
  H   H110      1.0  0.51020  0.85060  0.60220  1.0000
  C   C69       1.0  0.36108  0.01834  0.66765  1.0000
  H   H111      1.0  0.48498  0.77642  0.63348  1.0000
  H   H112      1.0  0.44326  0.78043  0.66430  1.0000
  C   C70       1.0  0.50152  0.80549  0.74396  1.0000
  H   H113      1.0  0.09253  0.55256  0.58249  1.0000
  H   H114      1.0  0.31208  0.67837  0.67814  1.0000
  H   H115      1.0  0.38294  0.76189  0.72237  1.0000
  H   H116      1.0  0.08971  0.60211  0.57581  1.0000
  C   C71       1.0  0.52795  0.83740  0.71134  1.0000
  H   H117      1.0  0.32399  0.64006  0.70716  1.0000
  H   H118      1.0  0.35097  0.75968  0.77088  1.0000
  S   S31       1.0  0.26523  0.53105  0.64275  1.0000
  C   C72       1.0  0.43745  0.02080  0.57295  1.0000
  H   H119      1.0  0.34729  0.02293  0.63496  1.0000
  C   C73       1.0  0.45791  0.78169  0.54915  1.0000
  H   H120      1.0  0.40272  0.70949  0.76020  1.0000
  H   H121      1.0  0.49249  0.78859  0.55000  1.0000
  C   C74       1.0  0.46389  0.84637  0.75983  1.0000
  C   C75       1.0  0.47012  0.81043  0.76881  1.0000
  H   H122      1.0  0.43676  0.74588  0.54344  1.0000
  H   H123      1.0  0.06701  0.53844  0.68538  1.0000
  C   C76       1.0  0.16055  0.90962  0.90805  1.0000
  C   C77       1.0  0.29598  0.95708  0.81230  1.0000
  H   H124      1.0  0.26464  0.00967  0.88826  1.0000
  H   H125      1.0  0.10875  0.82231  0.91764  1.0000
  H   H126      1.0  0.13438  0.89556  0.88175  1.0000
  C   C78       1.0  0.08510  0.93801  0.98059  1.0000
  N   N9        1.0  0.17374  0.87749  0.92373  1.0000
  H   H127      1.0  0.34977  0.57598  0.78498  1.0000
  H   H128      1.0  0.14394  0.81347  0.95618  1.0000
  H   H129      1.0  0.36722  0.97705  0.90006  1.0000
  H   H130      1.0  0.12109  0.84704  0.97289  1.0000
  C   C79       1.0  0.20792  0.89752  0.95914  1.0000
  S   S32       1.0  0.32977  0.01747  0.95484  1.0000
  H   H131      1.0  0.19549  0.90677  0.98960  1.0000
  H   H132      1.0  0.18866  0.93961  0.89282  1.0000
  H   H133      1.0  0.23708  0.92786  0.94594  1.0000
  C   C80       1.0  0.13522  0.83828  0.94340  1.0000
  H   H134      1.0  0.11702  0.96584  0.97343  1.0000
  S   S33       1.0  0.21298  0.01409  0.97097  1.0000
  C   C81       1.0  0.19120  0.86460  0.88449  1.0000
  H   H135      1.0  0.14759  0.92017  0.93705  1.0000
  H   H136      1.0  0.16672  0.85040  0.85654  1.0000
  H   H137      1.0  0.24611  0.97596  0.81135  1.0000
  C   C82       1.0  0.28273  0.99491  0.87437  1.0000
  H   H138      1.0  0.45027  0.78612  0.79455  1.0000
  C   C83       1.0  0.27250  0.97608  0.83074  1.0000
  C   C84       1.0  0.31679  0.99516  0.89958  1.0000
  H   H139      1.0  0.22088  0.89326  0.86954  1.0000
  C   C85       1.0  0.33029  0.95772  0.83733  1.0000
  S   S34       1.0  0.42174  0.84998  0.78795  1.0000
  H   H140      1.0  0.34838  0.94288  0.82360  1.0000
  H   H141      1.0  0.20076  0.83978  0.89492  1.0000
  C   C86       1.0  0.34081  0.97695  0.88074  1.0000
  H   H142      1.0  0.21928  0.87454  0.97128  1.0000
  C   C87       1.0  0.08032  0.90591  0.01292  1.0000
  H   H143      1.0  0.37271  0.70989  0.80973  1.0000
  H   H144      1.0  0.05238  0.95801  0.93095  1.0000
  H   H145      1.0  0.29349  0.68835  0.80203  1.0000
  Fe  Fe18      1.0  0.27871  0.02559  0.99368  1.0000
  C   C88       1.0  0.04849  0.93363  0.95663  1.0000
  H   H146      1.0  0.36056  0.65881  0.78404  1.0000
  C   C89       1.0  0.36961  0.69358  0.77644  1.0000
  H   H147      1.0  0.28270  0.63815  0.77538  1.0000
  C   C90       1.0  0.94021  0.29354  0.25151  1.0000
  C   C91       1.0  0.89985  0.07443  0.05361  1.0000
  C   C92       1.0  0.00467  0.34577  0.20842  1.0000
  H   H148      1.0  0.96506  0.41151  0.22189  1.0000
  C   C93       1.0  0.92103  0.03502  0.10784  1.0000
  C   C94       1.0  0.93378  0.26104  0.22018  1.0000
  C   C95       1.0  0.96254  0.27089  0.18288  1.0000
  C   C96       1.0  0.99802  0.31329  0.17684  1.0000
  C   C97       1.0  0.94676  0.42565  0.20382  1.0000
  H   H149      1.0  0.90631  0.22818  0.22448  1.0000
  H   H150      1.0  0.95700  0.24573  0.15858  1.0000
  H   H151      1.0  0.94732  0.10512  0.10703  1.0000
  C   C98       1.0  0.92521  0.07461  0.09073  1.0000
  H   H152      1.0  0.79664  0.47431  0.26328  1.0000
  H   H153      1.0  0.93611  0.44127  0.23007  1.0000
  S   S35       1.0  0.00440  0.20209  0.11611  1.0000
  C   C99       1.0  0.97585  0.33591  0.24575  1.0000
  H   H154      1.0  0.98894  0.04997  0.04551  1.0000
  H   H155      1.0  0.85022  0.33053  0.19365  1.0000
  S   S36       1.0  0.03343  0.32699  0.12929  1.0000
  H   H156      1.0  0.85671  0.38728  0.13633  1.0000
  H   H157      1.0  0.89521  0.34240  0.23103  1.0000
  H   H158      1.0  0.89670  0.34626  0.12434  1.0000
  Fe  Fe19      1.0  0.97042  0.18082  0.04844  1.0000
  H   H159      1.0  0.94067  0.35465  0.16145  1.0000
  C   C100      1.0  0.92430  0.37145  0.14461  1.0000
  C   C101      1.0  0.87858  0.35748  0.21141  1.0000
  H   H160      1.0  0.97025  0.45216  0.18030  1.0000
  H   H161      1.0  0.86537  0.37144  0.23669  1.0000
  H   H162      1.0  0.94837  0.39639  0.12015  1.0000
  H   H163      1.0  0.87414  0.42779  0.18016  1.0000
  C   C102      1.0  0.88585  0.41204  0.15516  1.0000
  H   H164      1.0  0.90768  0.43791  0.13006  1.0000
  N   N10       1.0  0.90890  0.39164  0.17869  1.0000
  H   H165      1.0  0.93998  0.03527  0.13726  1.0000
  Fe  Fe20      1.0  0.02838  0.27051  0.08829  1.0000
  S   S37       1.0  0.90443  0.12379  0.03241  1.0000
  C   C103      1.0  0.87092  0.03465  0.03304  1.0000
  H   H166      1.0  0.03230  0.37853  0.20404  1.0000
  H   H167      1.0  0.98155  0.36089  0.27030  1.0000
  C   C104      1.0  0.02198  0.05439  0.03811  1.0000
  H   H168      1.0  0.90429  0.50115  0.35249  1.0000
  H   H169      1.0  0.66566  0.34296  0.32062  1.0000
  S   S38       1.0  0.60855  0.17196  0.34844  1.0000
  C   C105      1.0  0.65638  0.20901  0.37711  1.0000
  C   C106      1.0  0.65469  0.22255  0.42153  1.0000
  C   C107      1.0  0.69349  0.25169  0.44402  1.0000
  C   C108      1.0  0.73400  0.26830  0.42175  1.0000
  C   C109      1.0  0.73550  0.25473  0.37737  1.0000
  C   C110      1.0  0.69694  0.22485  0.35529  1.0000
  H   H170      1.0  0.62362  0.20985  0.43900  1.0000
  H   H171      1.0  0.69197  0.26157  0.47860  1.0000
  H   H172      1.0  0.76629  0.26634  0.36029  1.0000
  H   H173      1.0  0.69837  0.21432  0.32100  1.0000
  C   C111      1.0  0.74431  0.36509  0.35718  1.0000
  H   H174      1.0  0.74613  0.12709  0.38454  1.0000
  C   C112      1.0  0.57783  0.35496  0.41277  1.0000
  H   H175      1.0  0.66556  0.30839  0.39469  1.0000
  S   S39       1.0  0.78222  0.30541  0.45021  1.0000
  H   H176      1.0  0.81017  0.24257  0.42223  1.0000
  H   H177      1.0  0.76589  0.36462  0.38503  1.0000
  Fe  Fe21      1.0  0.88145  0.40989  0.32976  1.0000
  S   S40       1.0  0.55033  0.23930  0.33845  1.0000
  Fe  Fe22      1.0  0.94077  0.40859  0.40474  1.0000
  S   S41       1.0  0.56077  0.30741  0.44681  1.0000
  H   H178      1.0  0.75463  0.44520  0.37127  1.0000
  C   C113      1.0  0.79263  0.20599  0.42325  1.0000
  H   H179      1.0  0.76583  0.38989  0.33095  1.0000
  S   S42       1.0  0.61977  0.48068  0.32789  1.0000
  H   H180      1.0  0.65776  0.38312  0.34974  1.0000
  C   C114      1.0  0.68318  0.37555  0.33725  1.0000
  C   C115      1.0  0.73334  0.41901  0.39645  1.0000
  H   H181      1.0  0.81565  0.24011  0.33821  1.0000
  H   H182      1.0  0.75455  0.41990  0.42535  1.0000
  Fe  Fe23      1.0  0.55058  0.17959  0.36679  1.0000
  H   H183      1.0  0.87343  0.24050  0.38818  1.0000
  S   S43       1.0  0.88068  0.41606  0.40595  1.0000
  H   H184      1.0  0.64803  0.46487  0.41695  1.0000
  C   C116      1.0  0.62357  0.43407  0.40342  1.0000
  C   C117      1.0  0.60560  0.43245  0.36015  1.0000
  C   C118      1.0  0.85091  0.48366  0.30562  1.0000
  H   H185      1.0  0.62263  0.39709  0.46375  1.0000
  C   C119      1.0  0.60920  0.39555  0.42994  1.0000
  S   S44       1.0  0.00283  0.45561  0.44158  1.0000
  H   H186      1.0  0.95492  0.37976  0.50287  1.0000
  C   C120      1.0  0.57418  0.39180  0.34301  1.0000
  S   S45       1.0  0.90246  0.28034  0.29678  1.0000
  H   H187      1.0  0.70926  0.42792  0.41017  1.0000
  H   H188      1.0  0.65858  0.34853  0.42484  1.0000
  H   H189      1.0  0.56010  0.39026  0.30955  1.0000
  C   C121      1.0  0.01447  0.44177  0.49610  1.0000
  H   H190      1.0  0.75692  0.19467  0.42178  1.0000
  C   C122      1.0  0.68361  0.34163  0.40985  1.0000
  N   N11       1.0  0.71112  0.37533  0.37518  1.0000
  H   H191      1.0  0.72869  0.33223  0.34111  1.0000
  S   S46       1.0  0.94442  0.40811  0.32746  1.0000
  H   H192      1.0  0.70279  0.40062  0.31042  1.0000
  H   H193      1.0  0.70366  0.33983  0.43859  1.0000
  N   N12       1.0  0.56037  0.50716  0.44720  1.0000
  S   S47       1.0  0.90334  0.33504  0.41336  1.0000
  H   H194      1.0  0.79190  0.12552  0.35914  1.0000
  S   S48       1.0  0.84014  0.33705  0.33128  1.0000
  Fe  Fe24      1.0  0.84346  0.34241  0.40728  1.0000
  N   N13       1.0  0.80665  0.18835  0.38516  1.0000
  H   H195      1.0  0.86199  0.19236  0.42142  1.0000
  C   C123      1.0  0.54501  0.51577  0.49091  1.0000
  Fe  Fe25      1.0  0.90268  0.33517  0.33631  1.0000
  H   H196      1.0  0.80892  0.19179  0.31138  1.0000
  H   H197      1.0  0.76230  0.19214  0.33656  1.0000
  H   H198      1.0  0.78779  0.12709  0.42046  1.0000
  H   H199      1.0  0.86620  0.19265  0.35981  1.0000
  C   C124      1.0  0.78205  0.13984  0.38744  1.0000
  C   C125      1.0  0.85407  0.20398  0.38894  1.0000
  C   C126      1.0  0.79783  0.20364  0.34091  1.0000
  H   H200      1.0  0.79925  0.19565  0.45725  1.0000
  C   C127      1.0  0.87878  0.50783  0.34109  1.0000
  C   C128      1.0  0.81825  0.49292  0.29076  1.0000
  H   H201      1.0  0.61094  0.49812  0.47893  1.0000
  H   H202      1.0  0.61943  0.51332  0.41914  1.0000
  C   C129      1.0  0.56071  0.35302  0.36901  1.0000
  C   C130      1.0  0.98545  0.40256  0.51885  1.0000
  S   S49       1.0  0.85708  0.44218  0.27946  1.0000
  H   H203      1.0  0.54770  0.49591  0.51967  1.0000
  H   H204      1.0  0.54425  0.45314  0.40252  1.0000
  C   C131      1.0  0.60657  0.51838  0.45181  1.0000
  H   H205      1.0  0.97327  0.36256  0.58012  1.0000
  C   C132      1.0  0.99588  0.39292  0.56260  1.0000
  H   H206      1.0  0.00939  0.50499  0.67611  1.0000
  C   C133      1.0  0.03515  0.42252  0.58386  1.0000
  H   H207      1.0  0.01194  0.50673  0.57244  1.0000
  H   H208      1.0  0.97566  0.51691  0.60644  1.0000
  H   H209      1.0  0.91443  0.20705  0.90836  1.0000
  C   C134      1.0  0.93572  0.19437  0.92213  1.0000
  C   C135      1.0  0.94370  0.17117  0.84724  1.0000
  H   H210      1.0  0.92226  0.18293  0.83170  1.0000
  H   H211      1.0  0.87577  0.10937  0.93454  1.0000
  H   H212      1.0  0.86244  0.13076  0.88439  1.0000
  C   C136      1.0  0.96088  0.14184  0.91464  1.0000
  N   N14       1.0  0.93146  0.15696  0.89553  1.0000
  H   H213      1.0  0.88123  0.09161  0.87887  1.0000
  H   H214      1.0  0.95208  0.13023  0.95085  1.0000
  H   H215      1.0  0.97004  0.22215  0.92163  1.0000
  H   H216      1.0  0.95895  0.11399  0.89506  1.0000
  C   C137      1.0  0.88570  0.12059  0.89828  1.0000
  H   H217      1.0  0.99562  0.16874  0.91406  1.0000
  H   H218      1.0  0.97815  0.19870  0.84449  1.0000
  H   H219      1.0  0.94104  0.14385  0.82606  1.0000
  H   H220      1.0  0.92615  0.18469  0.95861  1.0000
  H   H221      1.0  0.85102  0.03430  0.00450  1.0000
  S   S50       1.0  0.02633  0.17950  0.01387  1.0000
  H   H222      1.0  0.02871  0.06231  0.00091  1.0000
  S   S51       1.0  0.98912  0.24884  0.02348  1.0000
  C   C138      1.0  0.87973  0.73078  0.22164  1.0000
  C   C139      1.0  0.75260  0.67156  0.19864  1.0000
  H   H223      1.0  0.73804  0.63910  0.21424  1.0000
  H   H224      1.0  0.76355  0.65069  0.13319  1.0000
  H   H225      1.0  0.80389  0.78782  0.14171  1.0000
  C   C140      1.0  0.76693  0.67816  0.15272  1.0000
  H   H226      1.0  0.72406  0.74604  0.07594  1.0000
  S   S52       1.0  0.80353  0.72737  0.07454  1.0000
  H   H227      1.0  0.77860  0.77629  0.22264  1.0000
  C   C141      1.0  0.01739  0.00675  0.10120  1.0000
  C   C142      1.0  0.86776  0.99517  0.04925  1.0000
  H   H228      1.0  0.84188  0.64591  0.24744  1.0000
  C   C143      1.0  0.78560  0.72009  0.13202  1.0000
  N   N15       1.0  0.02447  0.01469  0.05122  1.0000
  C   C144      1.0  0.99029  0.97641  0.02677  1.0000
  H   H229      1.0  0.70255  0.68822  0.07197  1.0000
  H   H230      1.0  0.64350  0.74770  0.03477  1.0000
  C   C145      1.0  0.75710  0.70700  0.22415  1.0000
  C   C146      1.0  0.77519  0.74876  0.20317  1.0000
  C   C147      1.0  0.78952  0.75535  0.15731  1.0000
  S   S53       1.0  0.79697  0.83409  0.05215  1.0000
  H   H231      1.0  0.98458  0.00134  0.11151  1.0000
  C   C148      1.0  0.69438  0.71492  0.06644  1.0000
  H   H232      1.0  0.84982  0.73162  0.21039  1.0000
  N   N16       1.0  0.87480  0.71317  0.26904  1.0000
  H   H233      1.0  0.66791  0.70933  0.09104  1.0000
  S   S54       1.0  0.89856  0.85314  0.05354  1.0000
  Fe  Fe26      1.0  0.86421  0.89265  0.05581  1.0000
  S   S55       1.0  0.88982  0.94649  0.10737  1.0000
  H   H234      1.0  0.90764  0.76492  0.21851  1.0000
  C   C149      1.0  0.89273  0.99531  0.08679  1.0000
  Fe  Fe27      1.0  0.83150  0.79544  0.04282  1.0000
  H   H235      1.0  0.88528  0.71025  0.19678  1.0000
  H   H236      1.0  0.80641  0.66713  0.26259  1.0000
  H   H237      1.0  0.01901  0.97702  0.11233  1.0000
  H   H238      1.0  0.92213  0.69192  0.25988  1.0000
  H   H239      1.0  0.84524  0.96454  0.03339  1.0000
  H   H240      1.0  0.03477  0.84543  0.04739  1.0000
  C   C150      1.0  0.83755  0.66791  0.27131  1.0000
  H   H241      1.0  0.95694  0.97084  0.03489  1.0000
  H   H242      1.0  0.99066  0.94571  0.03647  1.0000
  H   H243      1.0  0.61447  0.66731  0.03003  1.0000
  Fe  Fe28      1.0  0.77511  0.59430  0.36612  1.0000
  S   S56       1.0  0.73505  0.58347  0.30263  1.0000
  Fe  Fe29      1.0  0.71333  0.61043  0.42613  1.0000
  S   S57       1.0  0.66851  0.60168  0.36736  1.0000
  S   S58       1.0  0.70232  0.61931  0.50075  1.0000
  C   C151      1.0  0.61060  0.65794  0.49835  1.0000
  Fe  Fe30      1.0  0.72993  0.64159  0.32564  1.0000
  S   S59       1.0  0.71836  0.55037  0.41135  1.0000
  S   S60       1.0  0.77418  0.65528  0.38626  1.0000
  H   H244      1.0  0.86181  0.72810  0.33646  1.0000
  H   H245      1.0  0.91190  0.69894  0.31841  1.0000
  H   H246      1.0  0.65187  0.65061  0.44853  1.0000
  C   C152      1.0  0.64179  0.64645  0.48412  1.0000
  H   H247      1.0  0.78839  0.53348  0.29979  1.0000
  C   C153      1.0  0.86651  0.74095  0.30050  1.0000
  C   C154      1.0  0.66089  0.63112  0.51630  1.0000
  H   H248      1.0  0.59643  0.67056  0.47348  1.0000
  Fe  Fe31      1.0  0.67762  0.54439  0.34984  1.0000
  C   C155      1.0  0.84225  0.55128  0.34611  1.0000
  H   H249      1.0  0.89717  0.56121  0.38754  1.0000
  S   S61       1.0  0.83969  0.59559  0.37027  1.0000
  S   S62       1.0  0.74214  0.70101  0.28261  1.0000
  C   C156      1.0  0.87483  0.54195  0.36082  1.0000
  H   H250      1.0  0.62757  0.55334  0.46075  1.0000
  H   H251      1.0  0.57680  0.57014  0.41748  1.0000
  C   C157      1.0  0.91510  0.71272  0.28293  1.0000
  H   H252      1.0  0.83631  0.74201  0.29083  1.0000
  H   H253      1.0  0.83346  0.65345  0.30639  1.0000
  H   H254      1.0  0.89403  0.77538  0.30002  1.0000
  H   H255      1.0  0.56483  0.55100  0.50034  1.0000
  H   H256      1.0  0.94402  0.74636  0.28209  1.0000
  C   C158      1.0  0.81350  0.52632  0.31145  1.0000
  H   H257      1.0  0.56834  0.52886  0.37667  1.0000
  C   C159      1.0  0.55670  0.53448  0.41010  1.0000
  H   H258      1.0  0.69100  0.66537  0.64529  1.0000
  H   H259      1.0  0.60706  0.63433  0.61234  1.0000
  H   H260      1.0  0.66136  0.61272  0.58696  1.0000
  C   C160      1.0  0.59881  0.65469  0.54479  1.0000
  C   C161      1.0  0.61695  0.63808  0.57671  1.0000
  C   C162      1.0  0.64762  0.62595  0.56234  1.0000
  H   H261      1.0  0.67613  0.73810  0.60488  1.0000
  S   S63       1.0  0.66082  0.71545  0.76591  1.0000
  C   C163      1.0  0.70910  0.74131  0.60054  1.0000
  H   H262      1.0  0.70546  0.71596  0.57572  1.0000
  H   H263      1.0  0.66274  0.69045  0.67132  1.0000
  H   H264      1.0  0.73080  0.77399  0.58430  1.0000
  C   C164      1.0  0.69551  0.69333  0.66638  1.0000
  N   N17       1.0  0.72681  0.73597  0.64480  1.0000
  H   H265      1.0  0.70680  0.68908  0.70086  1.0000
  H   H266      1.0  0.76482  0.71049  0.61357  1.0000
  H   H267      1.0  0.00556  0.57374  0.66656  1.0000
  H   H268      1.0  0.78306  0.73309  0.66946  1.0000
  Fe  Fe32      1.0  0.60269  0.71322  0.72911  1.0000
  S   S64       1.0  0.61417  0.75182  0.66320  1.0000
  H   H269      1.0  0.75727  0.80467  0.66079  1.0000
  S   S65       1.0  0.56109  0.67120  0.56167  1.0000
  S   S66       1.0  0.56538  0.83051  0.67757  1.0000
  Fe  Fe33      1.0  0.55931  0.68973  0.63531  1.0000
  C   C165      1.0  0.73374  0.77188  0.67563  1.0000
  Fe  Fe34      1.0  0.56171  0.76504  0.68867  1.0000
  H   H270      1.0  0.79339  0.76898  0.62052  1.0000
  C   C166      1.0  0.76895  0.73723  0.63674  1.0000
  H   H271      1.0  0.70258  0.77176  0.68264  1.0000
  H   H272      1.0  0.74639  0.76841  0.70965  1.0000
  S   S67       1.0  0.55467  0.73169  0.75694  1.0000
  H   H273      1.0  0.00965  0.55635  0.56329  1.0000
  S   S68       1.0  0.55096  0.64952  0.69925  1.0000
  H   H274      1.0  0.54338  0.89911  0.67875  1.0000
  C   C167      1.0  0.00872  0.53291  0.59017  1.0000
  C   C168      1.0  0.03751  0.58874  0.64806  1.0000
  H   H275      1.0  0.03857  0.61394  0.62348  1.0000
  H   H276      1.0  0.64944  0.64683  0.01050  1.0000
  H   H277      1.0  0.67144  0.82041  0.88211  1.0000
  Fe  Fe35      1.0  0.89931  0.86419  0.97760  1.0000
  S   S69       1.0  0.74513  0.83760  0.93787  1.0000
  C   C169      1.0  0.68432  0.75004  0.81325  1.0000
  C   C170      1.0  0.66639  0.77466  0.83071  1.0000
  C   C171      1.0  0.68561  0.80156  0.86873  1.0000
  C   C172      1.0  0.72305  0.80435  0.88936  1.0000
  C   C173      1.0  0.74124  0.78000  0.87169  1.0000
  C   C174      1.0  0.72179  0.75279  0.83388  1.0000
  H   H278      1.0  0.77022  0.78209  0.88712  1.0000
  Fe  Fe36      1.0  0.80442  0.84412  0.97561  1.0000
  H   H279      1.0  0.73587  0.73386  0.82053  1.0000
  H   H280      1.0  0.63766  0.77295  0.81506  1.0000
  S   S70       1.0  0.83563  0.80231  0.96573  1.0000
  H   H281      1.0  0.63197  0.67512  0.97109  1.0000
  H   H282      1.0  0.70888  0.72437  0.95078  1.0000
  C   C175      1.0  0.00680  0.89803  0.96612  1.0000
  S   S71       1.0  0.86853  0.90695  0.98045  1.0000
  H   H283      1.0  0.99476  0.98072  0.98890  1.0000
  S   S72       1.0  0.96148  0.89336  0.93590  1.0000
  C   C176      1.0  0.71798  0.72467  0.98741  1.0000
  H   H284      1.0  0.66300  0.75602  0.97638  1.0000
  H   H285      1.0  0.96970  0.83904  0.00676  1.0000
  C   C177      1.0  0.00180  0.86671  0.99950  1.0000
  H   H286      1.0  0.74690  0.75729  0.99344  1.0000
  C   C178      1.0  0.67138  0.75280  0.01263  1.0000
  H   H287      1.0  0.72861  0.69975  0.99264  1.0000
  N   N18       1.0  0.68154  0.71673  0.01844  1.0000
  C   C179      1.0  0.64257  0.67458  0.00705  1.0000
  H   H288      1.0  0.69999  0.78508  0.02150  1.0000
  C   C180      1.0  0.03864  0.87030  0.02236  1.0000
