data_image0
_chemical_formula_structural       H2CSHCHSH3NCHCHCHFeH4CFeS3C4H8CFeHFeNHC3H2CHCH2CSHCHFeH3CH3C2SHS2H3SCH3NCNCSH2CHC2H2C2HCHCHCNHCH2FeSHSHSH2SHSCHFeCFeHSHFeHSH2C2HCHC4SCNC2HCSHFeHFeS2C2H2FeH3CSH2C3SHFeS2FeHCH3C2SCSCFeSFeSCNCHCH3C2SCSCH2FeCHSCH2SH7CHCSC2HC2NH2C2H3CH2CHSH5C2H7C2HCH4SCFeCH2FeHSH3SHC2FeCHC2HSCH2C2SCHCH3CFe2CH2CHNH2CH9NSCHSC3SH2C2HCH2CH2C2FeH2SCHCHSHSHC3H4CHFeHCSH3FeCHSC2NH2NSHFeH3CHFeHSC2H5NCHCSCH2CH3C3HC2HC2H2SH2C2HCSH2SH4CH3CHCSH8FeH2FeH2CHFeS2FeS2C4H2C3HCNCSH2NH3C3H2SCH2CHCSHCHC2H5CH2CNHCH3FeCH2S
_chemical_formula_sum              "H256 C160 S64 N16 Fe32"
_cell_length_a       32.4768
_cell_length_b       32.9226
_cell_length_c       29.2184
_cell_angle_alpha    90.2455
_cell_angle_beta     93.7093
_cell_angle_gamma    119.382

_space_group_name_H-M_alt    "P 1"
_space_group_IT_number       1

loop_
  _space_group_symop_operation_xyz
  'x, y, z'

loop_
  _atom_site_type_symbol
  _atom_site_label
  _atom_site_symmetry_multiplicity
  _atom_site_fract_x
  _atom_site_fract_y
  _atom_site_fract_z
  _atom_site_occupancy
  H   H1        1.0  0.17367  0.18891  0.26131  1.0000
  H   H2        1.0  0.16017  0.12808  0.20444  1.0000
  C   C1        1.0  0.17724  0.13619  0.09072  1.0000
  S   S1        1.0  0.08221  0.11534  0.26654  1.0000
  H   H3        1.0  0.14334  0.13480  0.07834  1.0000
  C   C2        1.0  0.23403  0.15112  0.15532  1.0000
  H   H4        1.0  0.24413  0.16197  0.19244  1.0000
  S   S2        1.0  0.20676  0.12465  0.29127  1.0000
  H   H5        1.0  0.14424  0.08239  0.16208  1.0000
  H   H6        1.0  0.26418  0.17532  0.13557  1.0000
  H   H7        1.0  0.11760  0.11901  0.15769  1.0000
  N   N1        1.0  0.18987  0.15128  0.13978  1.0000
  C   C3        1.0  0.15125  0.11880  0.16716  1.0000
  H   H8        1.0  0.17232  0.10061  0.08456  1.0000
  C   C4        1.0  0.19672  0.19883  0.14620  1.0000
  H   H9        1.0  0.20680  0.21141  0.18280  1.0000
  C   C5        1.0  0.20646  0.20798  0.28220  1.0000
  H   H10       1.0  0.22988  0.11562  0.15123  1.0000
  Fe  Fe1       1.0  0.12708  0.08248  0.28346  1.0000
  H   H11       1.0  0.20515  0.16020  0.06868  1.0000
  H   H12       1.0  0.16368  0.19988  0.13564  1.0000
  H   H13       1.0  0.22530  0.22427  0.12560  1.0000
  H   H14       1.0  0.20755  0.27387  0.27603  1.0000
  C   C6        1.0  0.22587  0.25626  0.29023  1.0000
  Fe  Fe2       1.0  0.34409  0.37214  0.49882  1.0000
  S   S3        1.0  0.40721  0.35812  0.39797  1.0000
  S   S4        1.0  0.28954  0.34075  0.33245  1.0000
  S   S5        1.0  0.30888  0.30931  0.45114  1.0000
  C   C7        1.0  0.18050  0.27323  0.38973  1.0000
  C   C8        1.0  0.26828  0.28155  0.31772  1.0000
  C   C9        1.0  0.29190  0.25862  0.33575  1.0000
  C   C10       1.0  0.27335  0.21076  0.32642  1.0000
  H   H15       1.0  0.30713  0.09278  0.51147  1.0000
  H   H16       1.0  0.32478  0.27772  0.35670  1.0000
  H   H17       1.0  0.29241  0.19365  0.33991  1.0000
  H   H18       1.0  0.10191  0.25533  0.42993  1.0000
  H   H19       1.0  0.08525  0.21973  0.37767  1.0000
  H   H20       1.0  0.18197  0.30472  0.40542  1.0000
  H   H21       1.0  0.16327  0.50073  0.48576  1.0000
  H   H22       1.0  0.18400  0.19373  0.38946  1.0000
  C   C11       1.0  0.10161  0.22461  0.41340  1.0000
  Fe  Fe3       1.0  0.33932  0.36015  0.39591  1.0000
  H   H23       1.0  0.26301  0.10580  0.37365  1.0000
  Fe  Fe4       1.0  0.43494  0.41703  0.45116  1.0000
  N   N2        1.0  0.14988  0.23073  0.41392  1.0000
  H   H24       1.0  0.07776  0.19314  0.43200  1.0000
  C   C12       1.0  0.33247  0.10216  0.42504  1.0000
  C   C13       1.0  0.52630  0.38732  0.53747  1.0000
  C   C14       1.0  0.55053  0.33213  0.51472  1.0000
  H   H25       1.0  0.29147  0.15573  0.41296  1.0000
  H   H26       1.0  0.26432  0.37901  0.46822  1.0000
  C   C15       1.0  0.23817  0.37097  0.49287  1.0000
  H   H27       1.0  0.18342  0.45955  0.47595  1.0000
  C   C16       1.0  0.19403  0.36686  0.47884  1.0000
  H   H28       1.0  0.18642  0.37242  0.44356  1.0000
  H   H29       1.0  0.51537  0.33830  0.43148  1.0000
  C   C17       1.0  0.26731  0.11723  0.41046  1.0000
  S   S6        1.0  0.10645  0.35464  0.49451  1.0000
  H   H30       1.0  0.13263  0.18489  0.35446  1.0000
  C   C18       1.0  0.16954  0.23541  0.46194  1.0000
  H   H31       1.0  0.46614  0.18352  0.54802  1.0000
  Fe  Fe5       1.0  0.37848  0.31129  0.45647  1.0000
  H   H32       1.0  0.20589  0.23991  0.46357  1.0000
  H   H33       1.0  0.31751  0.14834  0.49200  1.0000
  H   H34       1.0  0.47103  0.32501  0.47110  1.0000
  C   C19       1.0  0.14801  0.18982  0.39058  1.0000
  H   H35       1.0  0.16779  0.27055  0.35298  1.0000
  H   H36       1.0  0.14711  0.20405  0.48133  1.0000
  H   H37       1.0  0.51882  0.41560  0.52660  1.0000
  C   C20       1.0  0.16038  0.35689  0.51080  1.0000
  C   C21       1.0  0.52454  0.50777  0.53790  1.0000
  S   S7        1.0  0.36910  0.42405  0.44327  1.0000
  H   H38       1.0  0.32900  0.08842  0.38930  1.0000
  S   S8        1.0  0.41170  0.36965  0.51018  1.0000
  S   S9        1.0  0.08732  0.04505  0.34344  1.0000
  H   H39       1.0  0.17199  0.26634  0.48032  1.0000
  H   H40       1.0  0.51745  0.30226  0.52596  1.0000
  H   H41       1.0  0.42565  0.19016  0.47637  1.0000
  S   S10       1.0  0.37987  0.24385  0.45520  1.0000
  C   C22       1.0  0.40721  0.23842  0.50640  1.0000
  H   H42       1.0  0.34845  0.08552  0.44768  1.0000
  H   H43       1.0  0.23199  0.11041  0.42018  1.0000
  H   H44       1.0  0.35798  0.14030  0.42590  1.0000
  N   N3        1.0  0.54228  0.37040  0.49917  1.0000
  C   C23       1.0  0.10037  0.52648  0.54433  1.0000
  N   N4        1.0  0.28616  0.09284  0.44007  1.0000
  C   C24       1.0  0.17826  0.48025  0.50299  1.0000
  S   S11       1.0  0.51179  0.47291  0.44847  1.0000
  H   H45       1.0  0.09314  0.49113  0.53795  1.0000
  H   H46       1.0  0.21752  0.27974  0.39096  1.0000
  C   C25       1.0  0.29243  0.11011  0.48823  1.0000
  H   H47       1.0  0.12544  0.15699  0.40803  1.0000
  C   C26       1.0  0.42727  0.20937  0.50714  1.0000
  C   C27       1.0  0.50549  0.35296  0.46047  1.0000
  H   H48       1.0  0.48861  0.48064  0.54203  1.0000
  H   H49       1.0  0.49948  0.38127  0.44687  1.0000
  C   C28       1.0  0.23010  0.18508  0.30047  1.0000
  C   C29       1.0  0.45032  0.20570  0.54767  1.0000
  H   H50       1.0  0.25827  0.10351  0.50100  1.0000
  C   C30       1.0  0.24885  0.36618  0.53907  1.0000
  H   H51       1.0  0.15089  0.45482  0.52461  1.0000
  C   C31       1.0  0.41038  0.26395  0.54612  1.0000
  H   H52       1.0  0.24972  0.46277  0.52528  1.0000
  C   C32       1.0  0.25272  0.04205  0.43660  1.0000
  N   N5        1.0  0.22303  0.51083  0.53066  1.0000
  H   H53       1.0  0.26531  0.52672  0.47276  1.0000
  C   C33       1.0  0.54387  0.51202  0.49559  1.0000
  H   H54       1.0  0.21746  0.03358  0.44804  1.0000
  H   H55       1.0  0.39326  0.28491  0.54622  1.0000
  Fe  Fe6       1.0  0.08671  0.35307  0.66230  1.0000
  S   S12       1.0  0.33284  0.03962  0.75280  1.0000
  H   H56       1.0  0.23454  0.22535  0.65643  1.0000
  S   S13       1.0  0.08272  0.50329  0.63448  1.0000
  H   H57       1.0  0.14465  0.34207  0.58133  1.0000
  S   S14       1.0  0.30421  0.37319  0.55802  1.0000
  H   H58       1.0  0.24606  0.20812  0.71187  1.0000
  H   H59       1.0  0.22331  0.35252  0.60653  1.0000
  S   S15       1.0  0.12635  0.41241  0.61649  1.0000
  H   H60       1.0  0.18676  0.51189  0.58955  1.0000
  S   S16       1.0  0.37031  0.10408  0.63838  1.0000
  C   C34       1.0  0.10933  0.26768  0.78134  1.0000
  H   H61       1.0  0.19735  0.27587  0.64995  1.0000
  Fe  Fe7       1.0  0.46595  0.06542  0.65160  1.0000
  C   C35       1.0  0.31220  0.11095  0.74039  1.0000
  Fe  Fe8       1.0  0.07784  0.36255  0.55967  1.0000
  H   H62       1.0  0.19944  0.27193  0.77707  1.0000
  S   S17       1.0  0.07981  0.07267  0.76564  1.0000
  H   H63       1.0  0.21685  0.45584  0.57423  1.0000
  Fe  Fe9       1.0  0.44953  0.14759  0.64313  1.0000
  H   H64       1.0  0.22579  0.23521  0.78183  1.0000
  S   S18       1.0  0.12434  0.33502  0.71953  1.0000
  H   H65       1.0  0.34043  0.12547  0.71767  1.0000
  H   H66       1.0  0.18369  0.29603  0.70086  1.0000
  C   C36       1.0  0.30268  0.07049  0.76347  1.0000
  C   C37       1.0  0.20879  0.28617  0.68687  1.0000
  H   H67       1.0  0.16182  0.17721  0.72833  1.0000
  C   C38       1.0  0.21508  0.35608  0.57082  1.0000
  H   H68       1.0  0.29312  0.16437  0.72898  1.0000
  C   C39       1.0  0.16233  0.20636  0.70869  1.0000
  C   C40       1.0  0.45393  0.23153  0.58729  1.0000
  C   C41       1.0  0.09372  0.27807  0.73945  1.0000
  C   C42       1.0  0.55357  0.04706  0.61071  1.0000
  S   S19       1.0  0.45891  0.10347  0.59076  1.0000
  C   C43       1.0  0.24433  0.23677  0.69329  1.0000
  N   N6        1.0  0.21000  0.24812  0.71255  1.0000
  C   C44       1.0  0.17071  0.35076  0.55659  1.0000
  C   C45       1.0  0.43437  0.26104  0.58647  1.0000
  H   H69       1.0  0.28075  0.26743  0.69595  1.0000
  C   C46       1.0  0.28560  0.13328  0.74724  1.0000
  S   S20       1.0  0.21489  0.14263  0.78318  1.0000
  H   H70       1.0  0.26043  0.29458  0.76574  1.0000
  Fe  Fe10      1.0  0.38092  0.05609  0.59286  1.0000
  H   H71       1.0  0.15030  0.19356  0.67240  1.0000
  Fe  Fe11      1.0  0.38297  0.06616  0.69621  1.0000
  S   S21       1.0  0.46205  0.11323  0.70454  1.0000
  S   S22       1.0  0.48066  0.22485  0.63816  1.0000
  C   C47       1.0  0.22460  0.26319  0.76143  1.0000
  C   C48       1.0  0.24941  0.11538  0.77735  1.0000
  H   H72       1.0  0.24426  0.31818  0.68870  1.0000
  H   H73       1.0  0.43626  0.28023  0.61744  1.0000
  Fe  Fe12      1.0  0.06814  0.42946  0.62298  1.0000
  H   H74       1.0  0.13550  0.21382  0.72249  1.0000
  H   H75       1.0  0.27589  0.50400  0.57316  1.0000
  H   H76       1.0  0.54316  0.10201  0.58296  1.0000
  C   C49       1.0  0.26755  0.05350  0.79478  1.0000
  S   S23       1.0  0.51484  0.03452  0.65480  1.0000
  H   H77       1.0  0.49325  0.35875  0.55024  1.0000
  H   H78       1.0  0.55345  0.40145  0.56702  1.0000
  C   C50       1.0  0.24222  0.48220  0.55177  1.0000
  C   C51       1.0  0.08505  0.22251  0.79803  1.0000
  C   C52       1.0  0.07186  0.04358  0.01844  1.0000
  S   S24       1.0  0.11891  0.13028  0.86699  1.0000
  H   H79       1.0  0.09656  0.21500  0.83094  1.0000
  Fe  Fe13      1.0  0.08818  0.05937  0.89779  1.0000
  S   S25       1.0  0.09691  0.03662  0.96927  1.0000
  S   S26       1.0  0.12050  0.03284  0.84817  1.0000
  Fe  Fe14      1.0  0.14498  0.10040  0.81399  1.0000
  H   H80       1.0  0.21451  0.06288  0.82632  1.0000
  C   C53       1.0  0.24102  0.07592  0.80175  1.0000
  H   H81       1.0  0.13967  0.29488  0.80139  1.0000
  H   H82       1.0  0.06391  0.01406  0.13082  1.0000
  H   H83       1.0  0.09664  0.00460  0.05971  1.0000
  C   C54       1.0  0.07775  0.02406  0.05928  1.0000
  C   C55       1.0  0.05952  0.02962  0.09970  1.0000
  S   S27       1.0  0.08657  0.02097  0.23373  1.0000
  C   C56       1.0  0.44067  0.99810  0.53941  1.0000
  S   S28       1.0  0.17606  0.77896  0.48151  1.0000
  C   C57       1.0  0.40864  0.92965  0.48899  1.0000
  Fe  Fe15      1.0  0.12916  0.78896  0.42809  1.0000
  S   S29       1.0  0.15910  0.84434  0.37590  1.0000
  Fe  Fe16      1.0  0.12143  0.70272  0.47605  1.0000
  S   S30       1.0  0.13497  0.64150  0.47040  1.0000
  C   C58       1.0  0.11255  0.55777  0.50842  1.0000
  N   N7        1.0  0.42025  0.94693  0.53744  1.0000
  C   C59       1.0  0.25773  0.54472  0.50066  1.0000
  H   H84       1.0  0.24442  0.56696  0.48414  1.0000
  C   C60       1.0  0.25100  0.93676  0.51385  1.0000
  H   H85       1.0  0.05710  0.79820  0.37032  1.0000
  H   H86       1.0  0.25676  0.94168  0.47775  1.0000
  H   H87       1.0  0.18871  0.86960  0.50198  1.0000
  C   C61       1.0  0.11878  0.86333  0.35789  1.0000
  C   C62       1.0  0.12115  0.60349  0.51630  1.0000
  S   S31       1.0  0.33252  0.02050  0.52983  1.0000
  C   C63       1.0  0.13526  0.90854  0.34210  1.0000
  S   S32       1.0  0.08522  0.79932  0.47770  1.0000
  C   C64       1.0  0.07003  0.83336  0.35900  1.0000
  H   H88       1.0  0.11468  0.54643  0.47427  1.0000
  H   H89       1.0  0.17293  0.93169  0.34096  1.0000
  Fe  Fe17      1.0  0.12896  0.78526  0.53063  1.0000
  C   C65       1.0  0.21273  0.89547  0.52767  1.0000
  H   H90       1.0  0.41547  0.00868  0.52351  1.0000
  S   S33       1.0  0.07922  0.71212  0.41696  1.0000
  C   C66       1.0  0.10306  0.92395  0.32820  1.0000
  H   H91       1.0  0.48896  0.95170  0.54186  1.0000
  H   H92       1.0  0.44076  0.94563  0.46923  1.0000
  S   S34       1.0  0.07827  0.70814  0.53032  1.0000
  H   H93       1.0  0.38222  0.93812  0.47192  1.0000
  H   H94       1.0  0.24704  0.02783  0.40068  1.0000
  H   H95       1.0  0.47396  0.01581  0.52150  1.0000
  H   H96       1.0  0.39324  0.89109  0.48612  1.0000
  H   H97       1.0  0.26616  0.02268  0.45833  1.0000
  H   H98       1.0  0.29201  0.56837  0.52038  1.0000
  H   H99       1.0  0.11593  0.95894  0.31642  1.0000
  C   C67       1.0  0.28213  0.97084  0.54670  1.0000
  H   H100      1.0  0.12503  0.65320  0.56687  1.0000
  C   C68       1.0  0.11262  0.91354  0.72126  1.0000
  S   S35       1.0  0.16001  0.83486  0.59213  1.0000
  C   C69       1.0  0.23666  0.92226  0.60710  1.0000
  C   C70       1.0  0.55168  0.53911  0.57489  1.0000
  H   H101      1.0  0.23201  0.91641  0.64320  1.0000
  C   C71       1.0  0.20608  0.88768  0.57438  1.0000
  C   C72       1.0  0.16198  0.99689  0.71732  1.0000
  N   N8        1.0  0.15684  0.95106  0.70440  1.0000
  H   H102      1.0  0.08096  0.91514  0.70647  1.0000
  H   H103      1.0  0.18814  0.97305  0.64006  1.0000
  C   C73       1.0  0.27400  0.96413  0.59322  1.0000
  C   C74       1.0  0.19787  0.94784  0.72512  1.0000
  H   H104      1.0  0.29662  0.99101  0.61871  1.0000
  H   H105      1.0  0.10417  0.59834  0.63040  1.0000
  H   H106      1.0  0.53640  0.53589  0.60742  1.0000
  C   C75       1.0  0.10617  0.58680  0.59627  1.0000
  H   H107      1.0  0.23191  0.97554  0.71293  1.0000
  H   H108      1.0  0.10748  0.87841  0.71204  1.0000
  C   C76       1.0  0.09747  0.54110  0.58845  1.0000
  H   H109      1.0  0.15004  0.91125  0.64299  1.0000
  S   S36       1.0  0.38819  0.01453  0.65002  1.0000
  H   H110      1.0  0.24666  0.55877  0.58938  1.0000
  H   H111      1.0  0.12481  0.94888  0.63697  1.0000
  H   H112      1.0  0.11277  0.91641  0.75927  1.0000
  H   H113      1.0  0.16212  0.00115  0.75515  1.0000
  H   H114      1.0  0.13219  0.00102  0.70155  1.0000
  C   C77       1.0  0.37663  0.92525  0.56228  1.0000
  C   C78       1.0  0.21395  0.53624  0.56701  1.0000
  H   H115      1.0  0.44966  0.01202  0.57552  1.0000
  H   H116      1.0  0.20091  0.95204  0.76320  1.0000
  H   H117      1.0  0.19578  0.02616  0.70652  1.0000
  H   H118      1.0  0.35913  0.88650  0.56008  1.0000
  H   H119      1.0  0.38446  0.93623  0.59934  1.0000
  H   H120      1.0  0.20068  0.55919  0.55221  1.0000
  H   H121      1.0  0.19510  0.91361  0.71630  1.0000
  C   C79       1.0  0.15485  0.94593  0.65389  1.0000
  C   C80       1.0  0.11780  0.61785  0.56031  1.0000
  H   H122      1.0  0.46448  0.94763  0.59586  1.0000
  C   C81       1.0  0.45519  0.93504  0.55915  1.0000
  H   H123      1.0  0.44136  0.89671  0.55816  1.0000
  H   H124      1.0  0.35035  0.93535  0.54816  1.0000
  H   H125      1.0  0.06012  0.93258  0.93375  1.0000
  H   H126      1.0  0.26097  0.02302  0.81375  1.0000
  S   S37       1.0  0.01366  0.06422  0.15029  1.0000
  C   C82       1.0  0.03526  0.05485  0.09963  1.0000
  Fe  Fe18      1.0  0.03851  0.05143  0.22040  1.0000
  C   C83       1.0  0.02871  0.07378  0.05858  1.0000
  H   H127      1.0  0.00976  0.09318  0.05827  1.0000
  H   H128      1.0  0.87494  0.07965  0.44592  1.0000
  Fe  Fe19      1.0  0.77316  0.04524  0.43350  1.0000
  H   H129      1.0  0.89130  0.15037  0.50635  1.0000
  S   S38       1.0  0.80968  0.06767  0.36813  1.0000
  H   H130      1.0  0.94558  0.19860  0.53072  1.0000
  H   H131      1.0  0.58112  0.43867  0.47231  1.0000
  H   H132      1.0  0.88531  0.21056  0.40047  1.0000
  S   S39       1.0  0.64984  0.07527  0.49309  1.0000
  H   H133      1.0  0.94600  0.16639  0.48120  1.0000
  C   C84       1.0  0.58955  0.08933  0.54334  1.0000
  C   C85       1.0  0.89267  0.18784  0.42374  1.0000
  Fe  Fe20      1.0  0.03883  0.07313  0.32263  1.0000
  C   C86       1.0  0.96435  0.25301  0.45882  1.0000
  H   H134      1.0  0.91360  0.17554  0.40507  1.0000
  C   C87       1.0  0.86726  0.07548  0.37200  1.0000
  C   C88       1.0  0.88928  0.07730  0.33181  1.0000
  H   H135      1.0  0.85797  0.15659  0.42924  1.0000
  S   S40       1.0  0.77673  0.09349  0.48955  1.0000
  C   C89       1.0  0.93875  0.08989  0.41727  1.0000
  H   H136      1.0  0.57756  0.34363  0.54439  1.0000
  H   H137      1.0  0.61530  0.42327  0.51205  1.0000
  C   C90       1.0  0.96076  0.09158  0.37706  1.0000
  C   C91       1.0  0.89175  0.08103  0.41478  1.0000
  S   S41       1.0  0.02014  0.10458  0.38093  1.0000
  C   C92       1.0  0.58655  0.40924  0.48390  1.0000
  H   H138      1.0  0.88140  0.25233  0.46821  1.0000
  C   C93       1.0  0.97728  0.52547  0.52427  1.0000
  H   H139      1.0  0.59920  0.39793  0.45450  1.0000
  H   H140      1.0  0.96003  0.27805  0.43628  1.0000
  H   H141      1.0  0.95796  0.09491  0.45036  1.0000
  C   C94       1.0  0.93578  0.08466  0.33432  1.0000
  Fe  Fe21      1.0  0.69844  0.04461  0.49190  1.0000
  Fe  Fe22      1.0  0.78417  0.04362  0.53688  1.0000
  C   C95       1.0  0.88934  0.22933  0.49046  1.0000
  H   H142      1.0  0.85487  0.19975  0.49951  1.0000
  H   H143      1.0  0.98442  0.27262  0.49130  1.0000
  C   C96       1.0  0.92556  0.18060  0.49776  1.0000
  H   H144      1.0  0.56268  0.31844  0.48679  1.0000
  N   N9        1.0  0.91797  0.21269  0.46767  1.0000
  H   H145      1.0  0.98699  0.24175  0.44176  1.0000
  H   H146      1.0  0.90820  0.24978  0.52281  1.0000
  C   C97       1.0  0.61341  0.06394  0.53894  1.0000
  H   H147      1.0  0.59441  0.11589  0.51920  1.0000
  H   H148      1.0  0.95273  0.08620  0.30317  1.0000
  H   H149      1.0  0.96555  0.50189  0.49307  1.0000
  H   H150      1.0  0.90803  0.52955  0.47205  1.0000
  H   H151      1.0  0.87049  0.07317  0.29864  1.0000
  H   H152      1.0  0.84205  0.16575  0.75092  1.0000
  H   H153      1.0  0.70762  0.48750  0.66120  1.0000
  H   H154      1.0  0.89662  0.26841  0.78169  1.0000
  H   H155      1.0  0.87832  0.16864  0.70603  1.0000
  N   N10       1.0  0.91588  0.21704  0.76326  1.0000
  S   S42       1.0  0.02224  0.38381  0.56271  1.0000
  C   C98       1.0  0.92482  0.20490  0.62153  1.0000
  H   H156      1.0  0.94608  0.27431  0.71790  1.0000
  S   S43       1.0  0.04302  0.30200  0.60453  1.0000
  C   C99       1.0  0.82884  0.14321  0.59854  1.0000
  C   C100      1.0  0.90833  0.15683  0.61775  1.0000
  C   C101      1.0  0.92916  0.18470  0.78625  1.0000
  S   S44       1.0  0.84095  0.06709  0.59420  1.0000
  H   H157      1.0  0.82062  0.20426  0.59770  1.0000
  H   H158      1.0  0.96180  0.22837  0.63038  1.0000
  C   C102      1.0  0.95511  0.24995  0.73665  1.0000
  C   C103      1.0  0.86048  0.12612  0.60526  1.0000
  H   H159      1.0  0.79159  0.11944  0.58961  1.0000
  C   C104      1.0  0.02963  0.19792  0.73084  1.0000
  H   H160      1.0  0.86276  0.21344  0.71266  1.0000
  H   H161      1.0  0.99876  0.17097  0.71114  1.0000
  C   C105      1.0  0.68508  0.49855  0.67874  1.0000
  H   H162      1.0  0.93490  0.16294  0.76091  1.0000
  H   H163      1.0  0.98824  0.27130  0.75903  1.0000
  C   C106      1.0  0.87284  0.19008  0.73196  1.0000
  C   C107      1.0  0.84521  0.19116  0.60332  1.0000
  Fe  Fe23      1.0  0.99194  0.32803  0.61418  1.0000
  H   H164      1.0  0.93285  0.14360  0.62303  1.0000
  H   H165      1.0  0.64837  0.47851  0.66220  1.0000
  S   S45       1.0  0.91344  0.28214  0.61629  1.0000
  C   C108      1.0  0.89337  0.22213  0.61398  1.0000
  H   H166      1.0  0.68398  0.48803  0.71501  1.0000
  C   C109      1.0  0.04463  0.18776  0.77313  1.0000
  H   H167      1.0  0.96341  0.23095  0.71071  1.0000
  S   S46       1.0  0.03309  0.37517  0.67515  1.0000
  H   H168      1.0  0.04258  0.25020  0.68125  1.0000
  S   S47       1.0  0.01006  0.13291  0.79604  1.0000
  H   H169      1.0  0.95649  0.50504  0.55288  1.0000
  C   C110      1.0  0.05434  0.24284  0.71390  1.0000
  C   C111      1.0  0.90649  0.24355  0.79807  1.0000
  C   C112      1.0  0.56008  0.08121  0.57927  1.0000
  H   H170      1.0  0.87692  0.21992  0.81877  1.0000
  H   H171      1.0  0.96272  0.20379  0.80861  1.0000
  H   H172      1.0  0.93832  0.26422  0.82222  1.0000
  H   H173      1.0  0.90111  0.16029  0.80794  1.0000
  C   C113      1.0  0.04699  0.06823  0.01805  1.0000
  H   H174      1.0  0.04217  0.08333  0.98672  1.0000
  Fe  Fe24      1.0  0.05163  0.09784  0.82061  1.0000
  H   H175      1.0  0.77059  0.92216  0.26598  1.0000
  C   C114      1.0  0.74230  0.89923  0.28834  1.0000
  S   S48       1.0  0.99008  0.01197  0.27543  1.0000
  H   H176      1.0  0.70825  0.88153  0.26660  1.0000
  H   H177      1.0  0.69526  0.94693  0.28716  1.0000
  H   H178      1.0  0.75779  0.98836  0.28980  1.0000
  Fe  Fe25      1.0  0.04193  0.98646  0.29251  1.0000
  C   C115      1.0  0.85582  0.64794  0.54371  1.0000
  H   H179      1.0  0.64849  0.78759  0.49689  1.0000
  S   S49       1.0  0.66941  0.88042  0.47703  1.0000
  C   C116      1.0  0.70381  0.85287  0.47473  1.0000
  C   C117      1.0  0.68459  0.80645  0.48710  1.0000
  N   N11       1.0  0.97186  0.56696  0.51630  1.0000
  H   H180      1.0  0.65282  0.60679  0.52289  1.0000
  H   H181      1.0  0.89788  0.74582  0.48876  1.0000
  N   N12       1.0  0.73943  0.92629  0.32729  1.0000
  S   S50       1.0  0.78779  0.99981  0.48057  1.0000
  H   H182      1.0  0.72465  0.98234  0.33829  1.0000
  Fe  Fe26      1.0  0.70915  0.95862  0.48269  1.0000
  H   H183      1.0  0.69747  0.74891  0.49847  1.0000
  H   H184      1.0  0.78449  0.96994  0.38457  1.0000
  H   H185      1.0  0.89941  0.83678  0.47678  1.0000
  C   C118      1.0  0.75021  0.87670  0.46135  1.0000
  H   H186      1.0  0.81752  0.63040  0.54055  1.0000
  Fe  Fe27      1.0  0.03936  0.72190  0.47164  1.0000
  H   H187      1.0  0.69879  0.91397  0.38607  1.0000
  S   S51       1.0  0.96020  0.68617  0.45873  1.0000
  C   C119      1.0  0.93022  0.67778  0.50836  1.0000
  C   C120      1.0  0.88067  0.65409  0.50463  1.0000
  H   H188      1.0  0.97719  0.77737  0.42046  1.0000
  H   H189      1.0  0.86147  0.64122  0.47137  1.0000
  H   H190      1.0  0.00737  0.83748  0.43993  1.0000
  H   H191      1.0  0.70788  0.86662  0.36960  1.0000
  H   H192      1.0  0.95097  0.84988  0.38823  1.0000
  N   N13       1.0  0.93159  0.80227  0.44347  1.0000
  C   C121      1.0  0.77792  0.85475  0.46199  1.0000
  H   H193      1.0  0.99004  0.57125  0.44614  1.0000
  C   C122      1.0  0.92217  0.81484  0.39697  1.0000
  S   S52       1.0  0.79600  0.78421  0.48441  1.0000
  C   C123      1.0  0.00054  0.59307  0.47847  1.0000
  H   H194      1.0  0.99684  0.62425  0.47096  1.0000
  H   H195      1.0  0.96199  0.87249  0.47124  1.0000
  C   C124      1.0  0.78529  0.94886  0.35517  1.0000
  H   H196      1.0  0.81418  0.87364  0.45273  1.0000
  H   H197      1.0  0.81478  0.97314  0.33469  1.0000
  H   H198      1.0  0.76479  0.91190  0.45046  1.0000
  C   C125      1.0  0.97728  0.80241  0.44630  1.0000
  C   C126      1.0  0.75933  0.80906  0.47660  1.0000
  C   C127      1.0  0.03793  0.84831  0.34394  1.0000
  H   H199      1.0  0.79446  0.92272  0.36930  1.0000
  C   C128      1.0  0.89316  0.75525  0.45303  1.0000
  C   C129      1.0  0.70145  0.89473  0.35597  1.0000
  H   H200      1.0  0.00036  0.82440  0.34331  1.0000
  C   C130      1.0  0.61738  0.57907  0.52750  1.0000
  C   C131      1.0  0.71239  0.78465  0.48828  1.0000
  H   H201      1.0  0.91961  0.78926  0.37033  1.0000
  H   H202      1.0  0.88828  0.81575  0.39393  1.0000
  S   S53       1.0  0.01268  0.91152  0.31214  1.0000
  H   H203      1.0  0.91670  0.58318  0.49729  1.0000
  H   H204      1.0  0.98490  0.79192  0.48061  1.0000
  C   C132      1.0  0.93365  0.83653  0.47770  1.0000
  C   C133      1.0  0.92155  0.55238  0.50384  1.0000
  H   H205      1.0  0.85782  0.75311  0.44908  1.0000
  C   C134      1.0  0.72875  0.96243  0.30971  1.0000
  S   S54       1.0  0.70643  0.99846  0.54395  1.0000
  H   H206      1.0  0.94087  0.82817  0.51318  1.0000
  H   H207      1.0  0.03879  0.60570  0.48704  1.0000
  S   S55       1.0  0.69421  0.00054  0.43094  1.0000
  H   H208      1.0  0.89225  0.72806  0.42950  1.0000
  H   H209      1.0  0.01499  0.53567  0.53364  1.0000
  H   H210      1.0  0.66616  0.87762  0.33637  1.0000
  H   H211      1.0  0.60557  0.55111  0.45801  1.0000
  C   C135      1.0  0.59047  0.54751  0.49069  1.0000
  H   H212      1.0  0.75053  0.87180  0.30052  1.0000
  H   H213      1.0  0.81520  0.93286  0.53520  1.0000
  H   H214      1.0  0.89880  0.53302  0.53176  1.0000
  C   C136      1.0  0.05427  0.89373  0.32906  1.0000
  H   H215      1.0  0.72832  0.55345  0.60873  1.0000
  C   C137      1.0  0.67254  0.56244  0.69971  1.0000
  S   S56       1.0  0.63124  0.61361  0.61700  1.0000
  H   H216      1.0  0.71739  0.59955  0.62469  1.0000
  H   H217      1.0  0.84883  0.92817  0.65800  1.0000
  H   H218      1.0  0.68541  0.60057  0.69843  1.0000
  H   H219      1.0  0.76913  0.96744  0.60210  1.0000
  H   H220      1.0  0.84589  0.98250  0.57453  1.0000
  H   H221      1.0  0.63576  0.54468  0.68304  1.0000
  H   H222      1.0  0.73851  0.91793  0.56238  1.0000
  H   H223      1.0  0.67068  0.55348  0.73645  1.0000
  Fe  Fe28      1.0  0.70503  0.67354  0.60839  1.0000
  H   H224      1.0  0.86395  0.91801  0.74822  1.0000
  H   H225      1.0  0.83286  0.97341  0.65748  1.0000
  Fe  Fe29      1.0  0.77791  0.74539  0.54966  1.0000
  H   H226      1.0  0.86145  0.93707  0.57537  1.0000
  H   H227      1.0  0.77689  0.56643  0.68109  1.0000
  C   C138      1.0  0.88588  0.90226  0.74341  1.0000
  H   H228      1.0  0.75137  0.84894  0.62413  1.0000
  Fe  Fe30      1.0  0.80567  0.69305  0.61824  1.0000
  S   S57       1.0  0.75786  0.69344  0.66967  1.0000
  S   S58       1.0  0.84920  0.65874  0.63492  1.0000
  Fe  Fe31      1.0  0.78457  0.76771  0.65117  1.0000
  S   S59       1.0  0.80595  0.82917  0.70034  1.0000
  S   S60       1.0  0.83715  0.76901  0.60457  1.0000
  C   C139      1.0  0.96255  0.90601  0.75333  1.0000
  C   C140      1.0  0.94264  0.86165  0.73167  1.0000
  C   C141      1.0  0.89462  0.83786  0.71541  1.0000
  C   C142      1.0  0.86612  0.85815  0.72108  1.0000
  H   H229      1.0  0.96435  0.84558  0.72733  1.0000
  H   H230      1.0  0.87958  0.80355  0.69900  1.0000
  C   C143      1.0  0.88048  0.66426  0.58675  1.0000
  C   C144      1.0  0.93006  0.68708  0.59069  1.0000
  C   C145      1.0  0.83123  0.94406  0.57093  1.0000
  H   H231      1.0  0.94915  0.70036  0.62394  1.0000
  C   C146      1.0  0.81880  0.93525  0.65160  1.0000
  N   N14       1.0  0.79599  0.91935  0.60467  1.0000
  C   C147      1.0  0.93410  0.92635  0.75917  1.0000
  S   S61       1.0  0.72636  0.74835  0.59539  1.0000
  H   H232      1.0  0.94916  0.96059  0.77580  1.0000
  H   H233      1.0  0.75932  0.85523  0.56389  1.0000
  N   N15       1.0  0.70358  0.54933  0.67617  1.0000
  H   H234      1.0  0.80634  0.85963  0.60321  1.0000
  H   H235      1.0  0.66834  0.54333  0.60937  1.0000
  H   H236      1.0  0.79341  0.91667  0.67802  1.0000
  C   C148      1.0  0.75647  0.92942  0.59754  1.0000
  C   C149      1.0  0.75223  0.57469  0.69856  1.0000
  C   C150      1.0  0.77748  0.86862  0.59862  1.0000
  H   H237      1.0  0.72907  0.91103  0.62228  1.0000
  H   H238      1.0  0.76727  0.61315  0.69736  1.0000
  S   S62       1.0  0.02270  0.93450  0.77394  1.0000
  C   C151      1.0  0.59805  0.57509  0.56973  1.0000
  H   H239      1.0  0.99331  0.71358  0.55426  1.0000
  H   H240      1.0  0.75323  0.56617  0.73527  1.0000
  C   C152      1.0  0.70441  0.56167  0.62755  1.0000
  H   H241      1.0  0.02613  0.60906  0.56894  1.0000
  C   C153      1.0  0.60729  0.02998  0.57058  1.0000
  S   S63       1.0  0.75203  0.66912  0.55784  1.0000
  H   H242      1.0  0.96739  0.57857  0.58796  1.0000
  C   C154      1.0  0.57740  0.02155  0.60634  1.0000
  H   H243      1.0  0.62530  0.01003  0.56738  1.0000
  C   C155      1.0  0.98817  0.59712  0.55863  1.0000
  C   C156      1.0  0.95500  0.69453  0.55132  1.0000
  H   H244      1.0  0.57268  0.99518  0.63065  1.0000
  H   H245      1.0  0.98461  0.62877  0.55385  1.0000
  H   H246      1.0  0.97566  0.83377  0.91514  1.0000
  H   H247      1.0  0.95928  0.92721  0.86100  1.0000
  H   H248      1.0  0.95385  0.87118  0.85140  1.0000
  C   C157      1.0  0.95146  0.89423  0.87790  1.0000
  H   H249      1.0  0.94483  0.91938  0.96389  1.0000
  H   H250      1.0  0.99044  0.96883  0.93762  1.0000
  C   C158      1.0  0.97318  0.85829  0.93973  1.0000
  N   N16       1.0  0.98483  0.90296  0.91849  1.0000
  H   H251      1.0  0.91410  0.87751  0.88721  1.0000
  C   C159      1.0  0.98122  0.93448  0.95225  1.0000
  H   H252      1.0  0.99789  0.86373  0.97035  1.0000
  H   H253      1.0  0.00620  0.94197  0.98319  1.0000
  H   H254      1.0  0.93654  0.84080  0.95114  1.0000
  Fe  Fe32      1.0  0.05257  0.00726  0.80475  1.0000
  C   C160      1.0  0.03369  0.92487  0.90406  1.0000
  H   H255      1.0  0.03788  0.90250  0.87817  1.0000
  H   H256      1.0  0.04340  0.95857  0.88808  1.0000
  S   S64       1.0  0.01828  0.02944  0.85598  1.0000
