data_image0
_chemical_formula_structural       S2H2CSFeSFeCHCH2CH2CH2C3H2C2SCFeS2FeHCH2SH3NH2C2SH2SFeCHCH6CSH2C4NHFeHCH3SH2C2H3S2HCSHCFe2CH2C2H2C2H3CHNHCH2CSC2H4C2H2C2HCSCH3SFeHC2HFeSC2SCHSCSHCNHFeHC2SFeCHSH5CH4C2H2C2SHC2NHFeC3SCS2HFeHSHFeHCHCH5FeHNC4H2CHCH3SHCH2SH4SH3CHCH2NCHCH2CH2SCH2FeH4CHCFeHSNHCHCH2C3H4C2SH2NHFeHCH3SHS2FeHCH2NHCHCHC2HCH2CSCH3CH3CH2SC2HCHSHCHCFeCSCHCH2SHCHSHCFeHCHCNHC2HCHCSHSHCHFeHCH3CSCHCSH2NH2SH2CH3CHCHFeHCS2FeHFeC2H3CH2CSH4CH2CHNHNHC2FeSCSHFeNCSHSH2C3HC2H2CHCH2CSHCH8CHCHFeHFe2SC4SC3S2H3NCH2FeSC2H2C2SH2CH3C2HSC2H4CH3CH2CS2HCHCHCH2NSC3SHC2HC2HCFe2HSH2SH3C2HNCSH4FeH3CHC2H4CH2FeH2SCHC2HCH2SH5C2HNH4CHCS2FeSFeHC2SHC3FeSH6SHSHCH3CHCHNHCH3FeHCH
_chemical_formula_sum              "S80 H320 C200 Fe40 N20"
_cell_length_a       41.2181
_cell_length_b       41.3458
_cell_length_c       27.907
_cell_angle_alpha    85.1239
_cell_angle_beta     86.0081
_cell_angle_gamma    120.895

_space_group_name_H-M_alt    "P 1"
_space_group_IT_number       1

loop_
  _space_group_symop_operation_xyz
  'x, y, z'

loop_
  _atom_site_type_symbol
  _atom_site_label
  _atom_site_symmetry_multiplicity
  _atom_site_fract_x
  _atom_site_fract_y
  _atom_site_fract_z
  _atom_site_occupancy
  S   S1        1.0  0.34078  0.22557  0.43180  1.0000
  S   S2        1.0  0.43633  0.23029  0.46209  1.0000
  H   H1        1.0  0.24469  0.07169  0.48474  1.0000
  H   H2        1.0  0.22920  0.11336  0.43198  1.0000
  C   C1        1.0  0.31503  0.24325  0.46218  1.0000
  S   S3        1.0  0.37023  0.14956  0.43172  1.0000
  Fe  Fe1       1.0  0.43311  0.17881  0.43692  1.0000
  S   S4        1.0  0.47740  0.17817  0.38526  1.0000
  Fe  Fe2       1.0  0.37248  0.19875  0.46453  1.0000
  C   C2        1.0  0.33311  0.02736  0.46303  1.0000
  H   H3        1.0  0.35646  0.05566  0.44819  1.0000
  C   C3        1.0  0.29287  0.25337  0.43592  1.0000
  H   H4        1.0  0.27592  0.15206  0.43720  1.0000
  H   H5        1.0  0.29229  0.25071  0.39770  1.0000
  C   C4        1.0  0.24568  0.13591  0.45456  1.0000
  H   H6        1.0  0.50957  0.23476  0.45068  1.0000
  H   H7        1.0  0.28990  0.11231  0.49099  1.0000
  C   C5        1.0  0.51481  0.22032  0.35044  1.0000
  H   H8        1.0  0.48650  0.25182  0.35423  1.0000
  H   H9        1.0  0.23542  0.15616  0.45258  1.0000
  C   C6        1.0  0.51208  0.25252  0.34048  1.0000
  C   C7        1.0  0.49638  0.23305  0.61777  1.0000
  C   C8        1.0  0.31533  0.24662  0.51163  1.0000
  H   H10       1.0  0.25044  0.16928  0.53499  1.0000
  H   H11       1.0  0.26181  0.13970  0.57241  1.0000
  C   C9        1.0  0.49819  0.20008  0.62008  1.0000
  C   C10       1.0  0.30922  0.02225  0.50477  1.0000
  S   S5        1.0  0.31605  0.06107  0.53485  1.0000
  C   C11       1.0  0.26271  0.15075  0.53424  1.0000
  Fe  Fe3       1.0  0.42504  0.19877  0.53694  1.0000
  S   S6        1.0  0.36110  0.17045  0.54124  1.0000
  S   S7        1.0  0.46097  0.23678  0.58981  1.0000
  Fe  Fe4       1.0  0.36276  0.12302  0.50829  1.0000
  H   H12       1.0  0.47733  0.17578  0.60470  1.0000
  C   C12       1.0  0.20158  0.09636  0.52599  1.0000
  H   H13       1.0  0.29322  0.16928  0.51873  1.0000
  H   H14       1.0  0.18803  0.11376  0.52555  1.0000
  S   S8        1.0  0.42557  0.14898  0.51175  1.0000
  H   H15       1.0  0.25750  0.08300  0.54396  1.0000
  H   H16       1.0  0.18526  0.07237  0.50523  1.0000
  H   H17       1.0  0.19815  0.08393  0.56436  1.0000
  N   N1        1.0  0.24224  0.11960  0.50525  1.0000
  H   H18       1.0  0.33253  0.23934  0.53227  1.0000
  H   H19       1.0  0.50800  0.22133  0.51392  1.0000
  C   C13       1.0  0.02327  0.23314  0.50738  1.0000
  C   C14       1.0  0.25916  0.09556  0.50627  1.0000
  S   S9        1.0  0.20865  0.34024  0.44606  1.0000
  H   H20       1.0  0.37119  0.43796  0.39011  1.0000
  H   H21       1.0  0.02524  0.31635  0.34232  1.0000
  S   S10       1.0  0.30002  0.44000  0.38816  1.0000
  Fe  Fe5       1.0  0.25370  0.40119  0.44960  1.0000
  C   C15       1.0  0.06597  0.30194  0.49289  1.0000
  H   H22       1.0  0.23468  0.44846  0.38011  1.0000
  C   C16       1.0  0.25949  0.47274  0.35868  1.0000
  H   H23       1.0  0.34415  0.32996  0.46209  1.0000
  H   H24       1.0  0.37820  0.37302  0.48282  1.0000
  H   H25       1.0  0.37480  0.35071  0.37848  1.0000
  H   H26       1.0  0.38739  0.39648  0.34789  1.0000
  H   H27       1.0  0.23277  0.49385  0.12677  1.0000
  H   H28       1.0  0.30833  0.33408  0.39277  1.0000
  C   C17       1.0  0.36829  0.42088  0.42501  1.0000
  S   S11       1.0  0.11206  0.34384  0.48463  1.0000
  H   H29       1.0  0.32828  0.35689  0.49236  1.0000
  H   H30       1.0  0.22841  0.49835  0.33319  1.0000
  C   C18       1.0  0.35136  0.35938  0.46606  1.0000
  C   C19       1.0  0.29492  0.47566  0.35673  1.0000
  C   C20       1.0  0.31822  0.36357  0.39989  1.0000
  C   C21       1.0  0.38372  0.38042  0.38398  1.0000
  N   N2        1.0  0.35539  0.38106  0.41878  1.0000
  H   H31       1.0  0.34744  0.42237  0.45086  1.0000
  Fe  Fe6       1.0  0.17049  0.35216  0.49422  1.0000
  H   H32       1.0  0.39629  0.43515  0.43903  1.0000
  C   C22       1.0  0.25595  0.50095  0.33196  1.0000
  H   H33       1.0  0.41211  0.39332  0.39708  1.0000
  H   H34       1.0  0.25295  0.27273  0.43863  1.0000
  H   H35       1.0  0.29574  0.36221  0.42601  1.0000
  S   S12       1.0  0.21498  0.41458  0.49208  1.0000
  H   H36       1.0  0.31976  0.38031  0.36542  1.0000
  H   H37       1.0  0.03794  0.33358  0.48332  1.0000
  C   C23       1.0  0.27073  0.26610  0.45892  1.0000
  C   C24       1.0  0.03397  0.30553  0.49004  1.0000
  H   H38       1.0  0.07661  0.34664  0.69946  1.0000
  H   H39       1.0  0.07169  0.30074  0.64384  1.0000
  H   H40       1.0  0.16756  0.38906  0.61640  1.0000
  S   S13       1.0  0.18584  0.33446  0.56340  1.0000
  S   S14       1.0  0.24088  0.28176  0.53991  1.0000
  H   H41       1.0  0.08032  0.39334  0.60506  1.0000
  C   C25       1.0  0.27129  0.48565  0.67408  1.0000
  S   S15       1.0  0.24782  0.42360  0.62654  1.0000
  H   H42       1.0  0.07726  0.36010  0.56560  1.0000
  C   C26       1.0  0.07653  0.36473  0.60432  1.0000
  Fe  Fe7       1.0  0.22771  0.32747  0.51539  1.0000
  Fe  Fe8       1.0  0.23234  0.39596  0.55809  1.0000
  C   C27       1.0  0.29279  0.25884  0.53475  1.0000
  H   H43       1.0  0.23310  0.47583  0.56821  1.0000
  H   H44       1.0  0.14634  0.38735  0.56191  1.0000
  C   C28       1.0  0.10024  0.32346  0.62502  1.0000
  C   C29       1.0  0.14431  0.39090  0.60085  1.0000
  H   H45       1.0  0.27881  0.47063  0.70036  1.0000
  H   H46       1.0  0.15037  0.42028  0.60235  1.0000
  C   C30       1.0  0.10471  0.36823  0.67833  1.0000
  C   C31       1.0  0.25540  0.46899  0.63328  1.0000
  H   H47       1.0  0.04749  0.34302  0.62295  1.0000
  H   H48       1.0  0.12215  0.32012  0.64214  1.0000
  H   H49       1.0  0.10915  0.39689  0.68124  1.0000
  C   C32       1.0  0.24534  0.48838  0.59978  1.0000
  H   H50       1.0  0.12726  0.36658  0.69624  1.0000
  N   N3        1.0  0.10642  0.36183  0.62714  1.0000
  H   H51       1.0  0.10182  0.31786  0.58685  1.0000
  C   C33       1.0  0.27055  0.26886  0.50853  1.0000
  H   H52       1.0  0.29260  0.26058  0.57324  1.0000
  H   H53       1.0  0.08472  0.26231  0.50434  1.0000
  C   C34       1.0  0.06042  0.26556  0.50204  1.0000
  S   S16       1.0  0.27492  0.38763  0.51562  1.0000
  C   C35       1.0  0.25460  0.51899  0.10066  1.0000
  C   C36       1.0  0.45879  0.74896  0.36744  1.0000
  H   H54       1.0  0.23883  0.57028  0.12946  1.0000
  H   H55       1.0  0.23512  0.66596  0.49591  1.0000
  H   H56       1.0  0.23366  0.53874  0.18223  1.0000
  H   H57       1.0  0.50262  0.68102  0.37614  1.0000
  C   C37       1.0  0.50430  0.70968  0.30699  1.0000
  C   C38       1.0  0.35210  0.66849  0.01665  1.0000
  H   H58       1.0  0.32587  0.60914  0.10840  1.0000
  H   H59       1.0  0.32659  0.57741  0.06931  1.0000
  C   C39       1.0  0.03683  0.74314  0.48344  1.0000
  C   C40       1.0  0.07362  0.72716  0.43002  1.0000
  H   H60       1.0  0.10059  0.73062  0.41634  1.0000
  C   C41       1.0  0.51820  0.70707  0.35074  1.0000
  S   S17       1.0  0.24681  0.73203  0.41864  1.0000
  C   C42       1.0  0.04007  0.70218  0.41086  1.0000
  H   H61       1.0  0.26378  0.68113  0.37606  1.0000
  H   H62       1.0  0.28228  0.70575  0.49469  1.0000
  H   H63       1.0  0.34245  0.67522  0.04927  1.0000
  S   S18       1.0  0.38846  0.62515  0.20241  1.0000
  Fe  Fe9       1.0  0.33685  0.62220  0.23919  1.0000
  H   H64       1.0  0.39072  0.73566  0.34442  1.0000
  C   C43       1.0  0.25470  0.56226  0.15361  1.0000
  C   C44       1.0  0.32344  0.53572  0.30264  1.0000
  H   H65       1.0  0.34830  0.56003  0.28146  1.0000
  Fe  Fe10      1.0  0.39116  0.66965  0.14677  1.0000
  S   S19       1.0  0.36950  0.66610  0.28655  1.0000
  C   C45       1.0  0.38272  0.66270  0.01606  1.0000
  C   C46       1.0  0.30733  0.58410  0.09035  1.0000
  S   S20       1.0  0.33688  0.66361  0.18114  1.0000
  C   C47       1.0  0.28793  0.53258  0.30402  1.0000
  H   H66       1.0  0.45214  0.74587  0.40747  1.0000
  S   S21       1.0  0.28251  0.56704  0.26987  1.0000
  C   C48       1.0  0.33517  0.75071  0.29232  1.0000
  S   S22       1.0  0.40617  0.66479  0.06796  1.0000
  H   H67       1.0  0.44040  0.74943  0.27773  1.0000
  C   C49       1.0  0.29857  0.54025  0.15996  1.0000
  N   N4        1.0  0.27879  0.55138  0.12615  1.0000
  H   H68       1.0  0.31671  0.53145  0.14075  1.0000
  Fe  Fe11      1.0  0.37430  0.70804  0.22611  1.0000
  H   H69       1.0  0.51410  0.74557  0.24039  1.0000
  C   C50       1.0  0.28114  0.74035  0.36975  1.0000
  C   C51       1.0  0.31012  0.71447  0.31813  1.0000
  S   S23       1.0  0.42926  0.71779  0.18734  1.0000
  Fe  Fe12      1.0  0.42172  0.67258  0.24560  1.0000
  C   C52       1.0  0.28328  0.70937  0.35665  1.0000
  H   H70       1.0  0.31113  0.69026  0.30821  1.0000
  S   S24       1.0  0.46216  0.66979  0.29446  1.0000
  H   H71       1.0  0.29356  0.59325  0.06393  1.0000
  H   H72       1.0  0.27215  0.58707  0.17258  1.0000
  H   H73       1.0  0.31747  0.56429  0.17912  1.0000
  H   H74       1.0  0.27802  0.51644  0.18862  1.0000
  H   H75       1.0  0.04153  0.68651  0.38251  1.0000
  C   C53       1.0  0.07213  0.74790  0.46632  1.0000
  H   H76       1.0  0.44179  0.72017  0.35615  1.0000
  H   H77       1.0  0.23930  0.52649  0.07479  1.0000
  H   H78       1.0  0.27194  0.51016  0.07948  1.0000
  H   H79       1.0  0.35431  0.50961  0.32689  1.0000
  C   C54       1.0  0.32682  0.50713  0.32849  1.0000
  C   C55       1.0  0.51912  0.69494  0.64670  1.0000
  H   H80       1.0  0.24266  0.53870  0.58163  1.0000
  H   H81       1.0  0.23196  0.70172  0.61274  1.0000
  C   C56       1.0  0.48774  0.69587  0.66780  1.0000
  C   C57       1.0  0.39965  0.55773  0.58306  1.0000
  S   S25       1.0  0.27420  0.58581  0.65599  1.0000
  H   H82       1.0  0.21980  0.63600  0.62956  1.0000
  C   C58       1.0  0.26687  0.54069  0.64820  1.0000
  C   C59       1.0  0.26153  0.67645  0.51359  1.0000
  N   N5        1.0  0.25383  0.67631  0.56620  1.0000
  H   H83       1.0  0.25405  0.74661  0.70358  1.0000
  Fe  Fe13      1.0  0.36420  0.70853  0.70410  1.0000
  C   C60       1.0  0.39501  0.65434  0.97303  1.0000
  C   C61       1.0  0.46654  0.72486  0.86242  1.0000
  C   C62       1.0  0.48696  0.72927  0.65964  1.0000
  S   S26       1.0  0.19086  0.74993  0.51180  1.0000
  C   C63       1.0  0.33390  0.66562  0.97482  1.0000
  S   S27       1.0  0.34418  0.61051  0.76502  1.0000
  S   S28       1.0  0.30723  0.66370  0.74405  1.0000
  H   H84       1.0  0.30733  0.73662  0.71721  1.0000
  Fe  Fe14      1.0  0.31571  0.62239  0.70561  1.0000
  H   H85       1.0  0.37089  0.59218  0.67210  1.0000
  S   S29       1.0  0.37064  0.66802  0.66227  1.0000
  H   H86       1.0  0.38608  0.64459  0.89863  1.0000
  Fe  Fe15      1.0  0.39863  0.65982  0.72363  1.0000
  H   H87       1.0  0.37509  0.52774  0.59096  1.0000
  C   C64       1.0  0.37701  0.65184  0.93109  1.0000
  H   H88       1.0  0.46276  0.73024  0.67527  1.0000
  C   C65       1.0  0.22616  0.63699  0.58981  1.0000
  H   H89       1.0  0.44106  0.72138  0.84656  1.0000
  H   H90       1.0  0.30217  0.67296  0.58383  1.0000
  H   H91       1.0  0.51412  0.71851  0.76239  1.0000
  H   H92       1.0  0.44831  0.62647  0.60792  1.0000
  H   H93       1.0  0.47659  0.72823  0.76537  1.0000
  Fe  Fe16      1.0  0.34080  0.65614  0.80036  1.0000
  H   H94       1.0  0.23745  0.61787  0.58539  1.0000
  N   N6        1.0  0.38992  0.58416  0.60295  1.0000
  C   C66       1.0  0.42315  0.62353  0.59169  1.0000
  C   C67       1.0  0.34638  0.65756  0.93169  1.0000
  C   C68       1.0  0.37963  0.57362  0.65613  1.0000
  C   C69       1.0  0.51759  0.71214  0.85859  1.0000
  H   H95       1.0  0.41834  0.64936  0.97240  1.0000
  H   H96       1.0  0.36416  0.59036  0.54102  1.0000
  C   C70       1.0  0.27728  0.52148  0.68136  1.0000
  H   H97       1.0  0.43175  0.63263  0.55190  1.0000
  C   C71       1.0  0.25074  0.52396  0.60751  1.0000
  H   H98       1.0  0.28930  0.53390  0.71310  1.0000
  H   H99       1.0  0.43281  0.66467  0.81436  1.0000
  H   H100      1.0  0.34806  0.60013  0.59646  1.0000
  S   S30       1.0  0.45050  0.65572  0.70608  1.0000
  H   H101      1.0  0.47081  0.65561  0.80973  1.0000
  C   C72       1.0  0.28969  0.69107  0.58792  1.0000
  H   H102      1.0  0.40411  0.57661  0.67419  1.0000
  H   H103      1.0  0.40750  0.56481  0.54295  1.0000
  S   S31       1.0  0.32170  0.65310  0.88046  1.0000
  H   H104      1.0  0.48612  0.75579  0.86351  1.0000
  H   H105      1.0  0.19873  0.62476  0.57433  1.0000
  H   H106      1.0  0.35546  0.54368  0.66604  1.0000
  H   H107      1.0  0.42415  0.55880  0.59902  1.0000
  S   S32       1.0  0.39736  0.70456  0.76248  1.0000
  H   H108      1.0  0.50760  0.69637  0.89616  1.0000
  H   H109      1.0  0.31014  0.67000  0.97573  1.0000
  H   H110      1.0  0.27333  0.65817  0.50641  1.0000
  C   C73       1.0  0.45777  0.66831  0.83177  1.0000
  H   H111      1.0  0.31147  0.72057  0.57087  1.0000
  C   C74       1.0  0.23790  0.70070  0.57352  1.0000
  H   H112      1.0  0.44673  0.65118  0.86848  1.0000
  H   H113      1.0  0.45657  0.71051  0.90064  1.0000
  N   N7        1.0  0.48546  0.70887  0.83438  1.0000
  C   C75       1.0  0.50004  0.73011  0.78474  1.0000
  H   H114      1.0  0.41692  0.64418  0.60661  1.0000
  C   C76       1.0  0.30899  0.75337  0.68415  1.0000
  H   H115      1.0  0.25790  0.73051  0.55576  1.0000
  H   H116      1.0  0.28491  0.69171  0.62752  1.0000
  C   C77       1.0  0.35720  0.58163  0.58100  1.0000
  H   H117      1.0  0.33207  0.55199  0.58764  1.0000
  H   H118      1.0  0.21072  0.69028  0.55775  1.0000
  S   S33       1.0  0.21524  0.81306  0.41542  1.0000
  C   C78       1.0  0.16844  0.87913  0.44681  1.0000
  H   H119      1.0  0.15362  0.82531  0.38967  1.0000
  H   H120      1.0  0.11305  0.82981  0.39969  1.0000
  Fe  Fe17      1.0  0.23665  0.77639  0.44711  1.0000
  H   H121      1.0  0.13945  0.86545  0.46779  1.0000
  H   H122      1.0  0.48855  0.78788  0.27716  1.0000
  H   H123      1.0  0.14953  0.90961  0.34150  1.0000
  H   H124      1.0  0.47015  0.83587  0.33687  1.0000
  C   C79       1.0  0.33327  0.78182  0.30561  1.0000
  H   H125      1.0  0.18693  0.90730  0.45877  1.0000
  C   C80       1.0  0.32697  0.99578  0.44042  1.0000
  Fe  Fe18      1.0  0.25477  0.85686  0.45993  1.0000
  H   H126      1.0  0.12157  0.89368  0.40032  1.0000
  S   S34       1.0  0.28025  0.82238  0.48469  1.0000
  N   N8        1.0  0.16708  0.88258  0.39397  1.0000
  H   H127      1.0  0.18001  0.86096  0.45743  1.0000
  C   C81       1.0  0.15103  0.90645  0.38116  1.0000
  H   H128      1.0  0.47056  0.81439  0.39550  1.0000
  C   C82       1.0  0.20615  0.90042  0.36802  1.0000
  H   H129      1.0  0.14079  0.84556  0.34054  1.0000
  H   H130      1.0  0.21916  0.88320  0.37698  1.0000
  C   C83       1.0  0.41023  0.76395  0.35555  1.0000
  C   C84       1.0  0.30636  0.77670  0.34419  1.0000
  C   C85       1.0  0.29704  0.95874  0.45928  1.0000
  H   H131      1.0  0.30496  0.80077  0.35393  1.0000
  H   H132      1.0  0.22553  0.92913  0.37819  1.0000
  H   H133      1.0  0.16873  0.93549  0.39126  1.0000
  H   H134      1.0  0.35259  0.80996  0.28584  1.0000
  C   C86       1.0  0.14262  0.84429  0.38015  1.0000
  C   C87       1.0  0.47549  0.81452  0.35574  1.0000
  S   S35       1.0  0.29149  0.91993  0.43013  1.0000
  H   H135      1.0  0.20644  0.90359  0.32798  1.0000
  H   H136      1.0  0.50624  0.82466  0.34595  1.0000
  N   N9        1.0  0.45066  0.77634  0.34199  1.0000
  H   H137      1.0  0.34581  0.00015  0.40827  1.0000
  Fe  Fe19      1.0  0.17282  0.78989  0.48328  1.0000
  H   H138      1.0  0.45119  0.79743  0.26849  1.0000
  C   C88       1.0  0.45817  0.77795  0.28903  1.0000
  H   H139      1.0  0.40332  0.78429  0.33730  1.0000
  H   H140      1.0  0.48943  0.75834  0.35938  1.0000
  H   H141      1.0  0.40312  0.76173  0.39531  1.0000
  S   S36       1.0  0.11362  0.78185  0.48945  1.0000
  H   H142      1.0  0.34997  0.92155  0.49182  1.0000
  S   S37       1.0  0.37033  0.75831  0.24500  1.0000
  S   S38       1.0  0.21169  0.83558  0.52589  1.0000
  Fe  Fe20      1.0  0.23367  0.79769  0.54738  1.0000
  H   H143      1.0  0.28513  0.89633  0.60555  1.0000
  C   C89       1.0  0.28072  0.78067  0.63365  1.0000
  H   H144      1.0  0.26029  0.98097  0.55560  1.0000
  H   H145      1.0  0.35299  0.88421  0.52488  1.0000
  N   N10       1.0  0.34187  0.91828  0.56951  1.0000
  H   H146      1.0  0.34757  0.87713  0.61479  1.0000
  C   C90       1.0  0.35521  0.90735  0.61229  1.0000
  H   H147      1.0  0.38347  0.97802  0.56611  1.0000
  C   C91       1.0  0.34359  0.79221  0.60725  1.0000
  H   H148      1.0  0.36869  0.80512  0.58048  1.0000
  C   C92       1.0  0.31305  0.79704  0.59893  1.0000
  C   C93       1.0  0.35994  0.91403  0.52476  1.0000
  H   H149      1.0  0.28918  0.89971  0.54052  1.0000
  C   C94       1.0  0.34141  0.76998  0.64958  1.0000
  H   H150      1.0  0.38673  0.92541  0.61086  1.0000
  H   H151      1.0  0.24932  0.92543  0.51542  1.0000
  C   C95       1.0  0.27900  0.98522  0.52340  1.0000
  S   S39       1.0  0.24221  0.78658  0.62447  1.0000
  C   C96       1.0  0.35213  0.95833  0.56784  1.0000
  H   H152      1.0  0.34196  0.91015  0.64663  1.0000
  H   H153      1.0  0.31481  0.81378  0.56599  1.0000
  H   H154      1.0  0.51769  0.78806  0.62703  1.0000
  C   C97       1.0  0.30003  0.89325  0.57304  1.0000
  H   H155      1.0  0.29126  0.86277  0.57589  1.0000
  H   H156      1.0  0.33806  0.96248  0.60026  1.0000
  H   H157      1.0  0.34324  0.96769  0.53532  1.0000
  C   C98       1.0  0.27892  0.75916  0.67646  1.0000
  H   H158      1.0  0.39155  0.93284  0.52047  1.0000
  H   H159      1.0  0.03537  0.75912  0.51139  1.0000
  S   S40       1.0  0.37931  0.76294  0.65783  1.0000
  C   C99       1.0  0.51808  0.76203  0.63217  1.0000
  C   C100      1.0  0.27281  0.95363  0.50074  1.0000
  H   H160      1.0  0.53293  0.21032  0.46886  1.0000
  C   C101      1.0  0.72282  0.20147  0.46482  1.0000
  H   H161      1.0  0.78469  0.19420  0.36382  1.0000
  S   S41       1.0  0.76590  0.07072  0.45207  1.0000
  H   H162      1.0  0.90941  0.22741  0.34309  1.0000
  C   C102      1.0  0.54798  0.22140  0.33212  1.0000
  H   H163      1.0  0.72982  0.18874  0.32545  1.0000
  C   C103      1.0  0.75558  0.21634  0.32378  1.0000
  Fe  Fe21      1.0  0.81026  0.12851  0.47119  1.0000
  C   C104      1.0  0.78487  0.25255  0.47720  1.0000
  S   S42       1.0  0.71754  0.24375  0.27429  1.0000
  C   C105      1.0  0.79534  0.02486  0.47540  1.0000
  H   H164      1.0  0.73497  0.19721  0.43075  1.0000
  C   C106      1.0  0.97529  0.24270  0.37591  1.0000
  H   H165      1.0  0.94433  0.23759  0.29278  1.0000
  H   H166      1.0  0.72282  0.18192  0.49493  1.0000
  S   S43       1.0  0.78955  0.16940  0.47006  1.0000
  H   H167      1.0  0.55017  0.19652  0.33960  1.0000
  C   C107      1.0  0.76678  0.02818  0.45549  1.0000
  H   H168      1.0  0.79861  0.25009  0.44314  1.0000
  S   S44       1.0  0.86636  0.17171  0.42659  1.0000
  H   H169      1.0  0.95019  0.21978  0.40107  1.0000
  C   C108      1.0  0.78660  0.21942  0.34567  1.0000
  Fe  Fe22      1.0  0.84726  0.21346  0.43188  1.0000
  H   H170      1.0  0.98356  0.22869  0.34948  1.0000
  C   C109      1.0  0.75768  0.24872  0.29966  1.0000
  H   H171      1.0  0.69263  0.19220  0.46142  1.0000
  C   C110      1.0  0.93618  0.25056  0.32091  1.0000
  N   N11       1.0  0.74498  0.24155  0.47358  1.0000
  H   H172      1.0  0.81845  0.04917  0.48821  1.0000
  C   C111      1.0  0.52658  0.23230  0.47834  1.0000
  C   C112      1.0  0.82015  0.25489  0.34318  1.0000
  H   H173      1.0  0.60372  0.25489  0.28978  1.0000
  C   C113      1.0  0.57831  0.25441  0.30389  1.0000
  H   H174      1.0  0.55119  0.16590  0.91195  1.0000
  C   C114      1.0  0.58468  0.21998  0.83436  1.0000
  S   S45       1.0  0.58807  0.22588  0.69454  1.0000
  H   H175      1.0  0.55596  0.13027  0.88515  1.0000
  S   S46       1.0  0.83280  0.14196  0.54250  1.0000
  H   H176      1.0  0.72393  0.25288  0.68152  1.0000
  C   C115      1.0  0.55353  0.22946  0.66417  1.0000
  H   H177      1.0  0.61669  0.19457  0.77275  1.0000
  Fe  Fe23      1.0  0.81566  0.18580  0.53843  1.0000
  H   H178      1.0  0.78642  0.23392  0.50695  1.0000
  C   C116      1.0  0.62282  0.19708  0.86795  1.0000
  H   H179      1.0  0.62179  0.20843  0.90248  1.0000
  H   H180      1.0  0.64907  0.21998  0.84445  1.0000
  H   H181      1.0  0.72516  0.19631  0.66108  1.0000
  C   C117      1.0  0.77862  0.22869  0.61400  1.0000
  S   S47       1.0  0.77710  0.18726  0.59925  1.0000
  C   C118      1.0  0.59136  0.17236  0.79823  1.0000
  H   H182      1.0  0.59409  0.14697  0.80415  1.0000
  C   C119      1.0  0.74829  0.22453  0.64560  1.0000
  S   S48       1.0  0.94539  0.19486  0.50908  1.0000
  H   H183      1.0  0.56668  0.25476  0.55334  1.0000
  H   H184      1.0  0.52774  0.14756  0.86008  1.0000
  N   N12       1.0  0.58829  0.18637  0.84435  1.0000
  H   H185      1.0  0.62656  0.17250  0.87625  1.0000
  H   H186      1.0  0.56603  0.16458  0.77904  1.0000
  S   S49       1.0  0.87254  0.23317  0.50033  1.0000
  H   H187      1.0  0.55942  0.21336  0.81558  1.0000
  H   H188      1.0  0.58254  0.23162  0.86819  1.0000
  C   C120      1.0  0.55425  0.15613  0.87685  1.0000
  H   H189      1.0  0.72702  0.22605  0.55038  1.0000
  H   H190      1.0  0.59152  0.24369  0.50867  1.0000
  H   H191      1.0  0.69842  0.23882  0.51758  1.0000
  C   C121      1.0  0.99129  0.23669  0.50407  1.0000
  H   H192      1.0  0.61004  0.24330  0.81042  1.0000
  C   C122      1.0  0.52648  0.19821  0.64360  1.0000
  H   H193      1.0  0.52730  0.17239  0.64608  1.0000
  Fe  Fe24      1.0  0.88807  0.18844  0.49790  1.0000
  H   H194      1.0  0.01927  0.20505  0.51381  1.0000
  C   C123      1.0  0.72811  0.24564  0.51947  1.0000
  S   S50       1.0  0.67709  0.29399  0.19139  1.0000
  S   S51       1.0  0.61225  0.32750  0.25607  1.0000
  Fe  Fe25      1.0  0.66835  0.33052  0.23941  1.0000
  H   H195      1.0  0.82943  0.46741  0.36612  1.0000
  Fe  Fe26      1.0  0.71846  0.29647  0.24217  1.0000
  C   C124      1.0  0.57528  0.28630  0.29299  1.0000
  C   C125      1.0  0.54213  0.28531  0.31136  1.0000
  H   H196      1.0  0.57714  0.32573  0.49277  1.0000
  H   H197      1.0  0.68098  0.29092  0.05559  1.0000
  H   H198      1.0  0.63013  0.38229  0.03028  1.0000
  C   C126      1.0  0.74423  0.26643  0.43290  1.0000
  H   H199      1.0  0.80246  0.28244  0.48448  1.0000
  H   H200      1.0  0.65111  0.40960  0.10673  1.0000
  C   C127      1.0  0.58550  0.34180  0.11422  1.0000
  S   S52       1.0  0.70470  0.32780  0.29379  1.0000
  H   H201      1.0  0.60746  0.29144  0.10066  1.0000
  H   H202      1.0  0.92881  0.27041  0.30227  1.0000
  H   H203      1.0  0.58220  0.36611  0.10179  1.0000
  H   H204      1.0  0.76047  0.29687  0.43838  1.0000
  C   C128      1.0  0.69082  0.30879  0.02078  1.0000
  H   H205      1.0  0.65666  0.32322  0.10646  1.0000
  H   H206      1.0  0.56983  0.28766  0.40299  1.0000
  C   C129      1.0  0.79045  0.45809  0.31390  1.0000
  H   H207      1.0  0.66219  0.36522  0.03265  1.0000
  N   N13       1.0  0.62442  0.35030  0.09863  1.0000
  H   H208      1.0  0.59204  0.26171  0.41986  1.0000
  N   N14       1.0  0.56172  0.26934  0.47957  1.0000
  H   H209      1.0  0.94608  0.30622  0.37098  1.0000
  C   C130      1.0  0.63262  0.35794  0.04508  1.0000
  C   C131      1.0  0.00155  0.30098  0.32043  1.0000
  Fe  Fe27      1.0  0.75318  0.38022  0.24836  1.0000
  S   S53       1.0  0.71583  0.38584  0.19794  1.0000
  C   C132      1.0  0.62733  0.31732  0.11634  1.0000
  S   S54       1.0  0.76892  0.34870  0.19873  1.0000
  H   H210      1.0  0.64713  0.37916  0.15965  1.0000
  Fe  Fe28      1.0  0.72646  0.34916  0.15163  1.0000
  N   N15       1.0  0.96682  0.27017  0.35133  1.0000
  C   C133      1.0  0.58512  0.28285  0.43141  1.0000
  S   S55       1.0  0.73718  0.36979  0.06954  1.0000
  H   H211      1.0  0.75057  0.45550  0.26627  1.0000
  S   S56       1.0  0.85923  0.25969  0.37130  1.0000
  H   H212      1.0  0.68209  0.39113  0.10829  1.0000
  H   H213      1.0  0.61243  0.31024  0.43113  1.0000
  C   C134      1.0  0.76642  0.46910  0.29525  1.0000
  C   C135      1.0  0.65238  0.38407  0.11922  1.0000
  C   C136      1.0  0.71865  0.34751  0.01754  1.0000
  H   H214      1.0  0.71457  0.25850  0.42812  1.0000
  C   C137      1.0  0.82244  0.28725  0.31872  1.0000
  C   C138      1.0  0.55138  0.29727  0.49190  1.0000
  H   H215      1.0  0.92890  0.26396  0.41291  1.0000
  H   H216      1.0  0.84829  0.31482  0.31660  1.0000
  C   C139      1.0  0.76399  0.49876  0.31292  1.0000
  H   H217      1.0  0.57881  0.33589  0.15463  1.0000
  C   C140      1.0  0.95434  0.28661  0.38808  1.0000
  H   H218      1.0  0.79314  0.30940  0.27888  1.0000
  H   H219      1.0  0.62054  0.31030  0.15658  1.0000
  C   C141      1.0  0.79122  0.28425  0.29732  1.0000
  S   S57       1.0  0.79762  0.42406  0.28912  1.0000
  H   H220      1.0  0.01173  0.28958  0.29220  1.0000
  C   C142      1.0  0.81094  0.47598  0.35147  1.0000
  H   H221      1.0  0.61292  0.33268  0.02819  1.0000
  H   H222      1.0  0.53418  0.30075  0.46515  1.0000
  H   H223      1.0  0.97715  0.30279  0.41064  1.0000
  H   H224      1.0  0.53967  0.30993  0.30298  1.0000
  H   H225      1.0  0.56366  0.31629  0.09961  1.0000
  H   H226      1.0  0.99615  0.32229  0.30158  1.0000
  H   H227      1.0  0.75729  0.26427  0.39799  1.0000
  H   H228      1.0  0.82256  0.44550  0.48476  1.0000
  C   C143      1.0  0.80772  0.50495  0.36999  1.0000
  H   H229      1.0  0.99901  0.25680  0.39810  1.0000
  C   C144      1.0  0.99679  0.27312  0.49600  1.0000
  H   H230      1.0  0.97236  0.27621  0.49451  1.0000
  Fe  Fe29      1.0  0.72560  0.32533  0.69941  1.0000
  H   H231      1.0  0.75077  0.42634  0.58889  1.0000
  Fe  Fe30      1.0  0.63827  0.27956  0.71404  1.0000
  Fe  Fe31      1.0  0.68138  0.31558  0.79915  1.0000
  S   S58       1.0  0.66867  0.29375  0.88105  1.0000
  C   C145      1.0  0.58359  0.26485  0.51662  1.0000
  C   C146      1.0  0.55221  0.26268  0.66083  1.0000
  C   C147      1.0  0.77114  0.41714  0.59691  1.0000
  C   C148      1.0  0.68886  0.31547  0.93271  1.0000
  S   S59       1.0  0.68178  0.32728  0.65830  1.0000
  C   C149      1.0  0.83209  0.42401  0.57390  1.0000
  C   C150      1.0  0.67599  0.29300  0.97870  1.0000
  C   C151      1.0  0.79663  0.43049  0.51224  1.0000
  S   S60       1.0  0.63470  0.31774  0.76378  1.0000
  S   S61       1.0  0.77734  0.33393  0.65232  1.0000
  H   H232      1.0  0.57282  0.28692  0.67659  1.0000
  H   H233      1.0  0.83864  0.42752  0.61187  1.0000
  H   H234      1.0  0.65465  0.26302  0.98178  1.0000
  N   N16       1.0  0.80640  0.43767  0.56180  1.0000
  C   C152      1.0  0.80842  0.26530  0.59418  1.0000
  H   H235      1.0  0.75625  0.38584  0.59656  1.0000
  H   H236      1.0  0.78187  0.39956  0.50921  1.0000
  Fe  Fe32      1.0  0.68232  0.36557  0.71080  1.0000
  S   S62       1.0  0.67854  0.41466  0.67624  1.0000
  C   C153      1.0  0.73132  0.36999  0.97160  1.0000
  C   C154      1.0  0.71667  0.35415  0.92948  1.0000
  H   H237      1.0  0.75279  0.39996  0.96851  1.0000
  H   H238      1.0  0.72694  0.37190  0.89454  1.0000
  C   C155      1.0  0.72150  0.45760  0.65495  1.0000
  C   C156      1.0  0.72363  0.48021  0.61299  1.0000
  S   S63       1.0  0.72914  0.36699  0.74935  1.0000
  H   H239      1.0  0.69894  0.47085  0.59400  1.0000
  H   H240      1.0  0.75188  0.45254  0.71195  1.0000
  C   C157      1.0  0.75344  0.46970  0.67934  1.0000
  H   H241      1.0  0.83265  0.48547  0.60133  1.0000
  H   H242      1.0  0.83215  0.26884  0.57023  1.0000
  H   H243      1.0  0.77732  0.42204  0.63474  1.0000
  C   C158      1.0  0.82567  0.47897  0.56415  1.0000
  C   C159      1.0  0.80779  0.29743  0.60613  1.0000
  H   H244      1.0  0.83114  0.32566  0.59125  1.0000
  S   S64       1.0  0.68220  0.27427  0.75158  1.0000
  C   C160      1.0  0.52353  0.26429  0.63816  1.0000
  C   C161      1.0  0.77737  0.29315  0.63781  1.0000
  H   H245      1.0  0.61023  0.29229  0.51880  1.0000
  H   H246      1.0  0.80737  0.49033  0.55416  1.0000
  H   H247      1.0  0.74512  0.27506  0.52870  1.0000
  H   H248      1.0  0.81883  0.39314  0.57111  1.0000
  C   C162      1.0  0.74750  0.25656  0.65718  1.0000
  H   H249      1.0  0.53390  0.28805  0.52819  1.0000
  H   H250      1.0  0.77728  0.44057  0.50204  1.0000
  H   H251      1.0  0.85957  0.43964  0.54929  1.0000
  C   C163      1.0  0.78713  0.50463  0.66230  1.0000
  H   H252      1.0  0.85280  0.49540  0.53889  1.0000
  H   H253      1.0  0.52230  0.28988  0.63661  1.0000
  C   C164      1.0  0.00471  0.69724  0.42830  1.0000
  S   S65       1.0  0.79565  0.60290  0.48739  1.0000
  S   S66       1.0  0.96332  0.66642  0.40226  1.0000
  H   H254      1.0  0.91829  0.60146  0.35574  1.0000
  C   C165      1.0  0.72342  0.71926  0.46999  1.0000
  H   H255      1.0  0.56185  0.73584  0.39631  1.0000
  C   C166      1.0  0.52442  0.74347  0.27443  1.0000
  H   H256      1.0  0.61685  0.66481  0.31590  1.0000
  C   C167      1.0  0.78991  0.71517  0.47258  1.0000
  H   H257      1.0  0.63296  0.71095  0.39865  1.0000
  H   H258      1.0  0.82334  0.51829  0.39916  1.0000
  N   N17       1.0  0.64989  0.72453  0.32148  1.0000
  S   S67       1.0  0.83182  0.71353  0.47727  1.0000
  C   C168      1.0  0.78501  0.51714  0.34983  1.0000
  C   C169      1.0  0.63742  0.73613  0.27828  1.0000
  C   C170      1.0  0.79046  0.74860  0.48043  1.0000
  S   S68       1.0  0.68073  0.71996  0.46916  1.0000
  H   H259      1.0  0.66482  0.68933  0.28494  1.0000
  C   C171      1.0  0.75748  0.75076  0.47889  1.0000
  C   C172      1.0  0.75595  0.68379  0.46309  1.0000
  H   H260      1.0  0.75512  0.65794  0.45674  1.0000
  C   C173      1.0  0.00325  0.71772  0.46491  1.0000
  C   C174      1.0  0.64681  0.68763  0.31782  1.0000
  H   H261      1.0  0.88391  0.64018  0.29723  1.0000
  C   C175      1.0  0.93458  0.60054  0.26116  1.0000
  Fe  Fe33      1.0  0.90342  0.64687  0.43761  1.0000
  Fe  Fe34      1.0  0.82128  0.59292  0.42052  1.0000
  H   H262      1.0  0.65635  0.67855  0.35001  1.0000
  S   S69       1.0  0.78432  0.55693  0.36708  1.0000
  H   H263      1.0  0.65542  0.73963  0.24434  1.0000
  H   H264      1.0  0.59469  0.69982  0.36339  1.0000
  S   S70       1.0  0.86273  0.58367  0.45828  1.0000
  H   H265      1.0  0.87219  0.58720  0.22115  1.0000
  H   H266      1.0  0.94132  0.61258  0.22208  1.0000
  H   H267      1.0  0.88750  0.55467  0.34071  1.0000
  C   C176      1.0  0.89356  0.58434  0.33620  1.0000
  C   C177      1.0  0.90901  0.63963  0.28076  1.0000
  H   H268      1.0  0.84182  0.57650  0.27686  1.0000
  N   N18       1.0  0.90114  0.60029  0.28453  1.0000
  C   C178      1.0  0.86735  0.57661  0.26051  1.0000
  S   S71       1.0  0.86304  0.65523  0.39535  1.0000
  H   H269      1.0  0.86853  0.58392  0.35464  1.0000
  H   H270      1.0  0.91585  0.65313  0.24231  1.0000
  H   H271      1.0  0.92945  0.57121  0.26354  1.0000
  H   H272      1.0  0.69664  0.66127  0.45520  1.0000
  Fe  Fe35      1.0  0.84071  0.66454  0.46552  1.0000
  H   H273      1.0  0.85972  0.54635  0.26424  1.0000
  H   H274      1.0  0.96038  0.61798  0.27894  1.0000
  H   H275      1.0  0.93347  0.65786  0.30025  1.0000
  C   C179      1.0  0.62529  0.72068  0.36530  1.0000
  H   H276      1.0  0.62813  0.74839  0.36998  1.0000
  C   C180      1.0  0.72285  0.68580  0.46212  1.0000
  C   C181      1.0  0.55186  0.73805  0.36214  1.0000
  H   H277      1.0  0.60719  0.71486  0.27481  1.0000
  H   H278      1.0  0.69943  0.74724  0.35896  1.0000
  H   H279      1.0  0.97634  0.71440  0.47852  1.0000
  H   H280      1.0  0.74618  0.50789  0.29734  1.0000
  C   C182      1.0  0.68993  0.75377  0.32490  1.0000
  H   H281      1.0  0.70971  0.75601  0.29381  1.0000
  H   H282      1.0  0.82464  0.65991  0.56146  1.0000
  Fe  Fe36      1.0  0.84088  0.59894  0.52300  1.0000
  H   H283      1.0  0.75913  0.63837  0.54788  1.0000
  H   H284      1.0  0.77309  0.59361  0.59309  1.0000
  S   S72       1.0  0.88496  0.66139  0.50574  1.0000
  C   C183      1.0  0.81955  0.66822  0.59666  1.0000
  H   H285      1.0  0.83875  0.66572  0.62086  1.0000
  C   C184      1.0  0.76879  0.60394  0.62707  1.0000
  C   C185      1.0  0.54981  0.72747  0.61789  1.0000
  H   H286      1.0  0.53249  0.70034  0.83834  1.0000
  C   C186      1.0  0.75501  0.64748  0.58306  1.0000
  H   H287      1.0  0.78685  0.60033  0.65234  1.0000
  H   H288      1.0  0.76239  0.67752  0.57461  1.0000
  S   S73       1.0  0.83254  0.56988  0.59884  1.0000
  H   H289      1.0  0.57415  0.72678  0.60212  1.0000
  H   H290      1.0  0.72415  0.62971  0.59741  1.0000
  H   H291      1.0  0.74265  0.63892  0.68050  1.0000
  H   H292      1.0  0.73844  0.58464  0.64304  1.0000
  H   H293      1.0  0.82853  0.69878  0.58913  1.0000
  C   C187      1.0  0.78941  0.52702  0.62004  1.0000
  C   C188      1.0  0.77296  0.65662  0.66363  1.0000
  H   H294      1.0  0.79088  0.65450  0.69034  1.0000
  N   N19       1.0  0.77903  0.64403  0.61766  1.0000
  H   H295      1.0  0.78048  0.68680  0.65764  1.0000
  H   H296      1.0  0.75930  0.53134  0.56213  1.0000
  H   H297      1.0  0.81162  0.51415  0.68173  1.0000
  H   H298      1.0  0.53903  0.74239  0.86122  1.0000
  C   C189      1.0  0.75771  0.51455  0.59507  1.0000
  H   H299      1.0  0.51992  0.66919  0.65294  1.0000
  C   C190      1.0  0.76383  0.95793  0.46279  1.0000
  S   S74       1.0  0.70005  0.81907  0.40984  1.0000
  S   S75       1.0  0.65069  0.85141  0.46120  1.0000
  Fe  Fe37      1.0  0.64072  0.80859  0.41088  1.0000
  S   S76       1.0  0.61676  0.80975  0.34031  1.0000
  Fe  Fe38      1.0  0.70752  0.85763  0.46589  1.0000
  H   H300      1.0  0.71268  0.93730  0.42906  1.0000
  C   C191      1.0  0.73697  0.99632  0.43897  1.0000
  C   C192      1.0  0.79388  0.98987  0.47889  1.0000
  S   S77       1.0  0.61430  0.75897  0.47030  1.0000
  H   H301      1.0  0.57468  0.79996  0.25953  1.0000
  C   C193      1.0  0.73551  0.96140  0.44250  1.0000
  C   C194      1.0  0.57265  0.77148  0.32908  1.0000
  C   C195      1.0  0.55869  0.77417  0.28532  1.0000
  Fe  Fe39      1.0  0.67449  0.77160  0.47237  1.0000
  S   S78       1.0  0.76191  0.91392  0.46993  1.0000
  H   H302      1.0  0.63917  0.76380  0.28054  1.0000
  H   H303      1.0  0.69361  0.78239  0.32490  1.0000
  H   H304      1.0  0.81602  0.98750  0.49443  1.0000
  H   H305      1.0  0.71494  0.99874  0.42314  1.0000
  H   H306      1.0  0.75838  0.77669  0.48502  1.0000
  H   H307      1.0  0.81659  0.77305  0.48776  1.0000
  S   S79       1.0  0.58914  0.80388  0.58016  1.0000
  H   H308      1.0  0.66562  0.86686  0.57726  1.0000
  S   S80       1.0  0.68625  0.81075  0.52909  1.0000
  H   H309      1.0  0.62172  0.87765  0.62758  1.0000
  C   C196      1.0  0.64729  0.91656  0.53800  1.0000
  H   H310      1.0  0.66120  0.91066  0.65617  1.0000
  H   H311      1.0  0.66531  0.92592  0.50216  1.0000
  H   H312      1.0  0.71797  0.96606  0.60595  1.0000
  C   C197      1.0  0.70047  0.96147  0.57575  1.0000
  H   H313      1.0  0.72039  0.97167  0.54139  1.0000
  C   C198      1.0  0.64500  0.90811  0.62499  1.0000
  H   H314      1.0  0.70552  0.90566  0.53871  1.0000
  N   N20       1.0  0.67011  0.92100  0.57827  1.0000
  H   H315      1.0  0.70624  0.90131  0.60284  1.0000
  C   C199      1.0  0.68760  0.89768  0.57425  1.0000
  H   H316      1.0  0.63370  0.93381  0.53975  1.0000
  H   H317      1.0  0.62424  0.88627  0.53871  1.0000
  H   H318      1.0  0.63138  0.92516  0.62933  1.0000
  Fe  Fe40      1.0  0.62857  0.80233  0.52100  1.0000
  H   H319      1.0  0.68856  0.98024  0.57717  1.0000
  C   C200      1.0  0.54959  0.76129  0.61122  1.0000
  H   H320      1.0  0.52112  0.76083  0.78501  1.0000
