data_image0
_chemical_formula_structural       HSCHFeCSCHFeHS2HFeHCHCH3CH2C2S2HNH2CH2C2HCHC3H2CNHSCH2SHCH3C2H3SFeHSFe2H2FeS3CH2NH3C2H2SC2SH2C2HSH2CHNCH3CHCH2CHCH3SCHC2SC3SNCH2SH5CFeC2H4C2H2CSH3SHC2H5C2NH4SCSC2FeSHFeSH2SCFeHFeH4SH2C2HCHNSHC3H2C3H3C2H2C2HNHSCHCH3C2H4CSH3SFe2HC2FeH2SFeSCSHCHC4HC3HC2H2C2HNH2SH4C2HSH5CHC2HC2HCNHCHCH4SHFeHCSCS2FeHCFeCH9FeCSH2CH2CHNCHC2HC3SH3CHNHCH3CHC4HSCHSHCH2CH2CSH3SHSHFe2HCH2SH2CHCH4C2H2CH5SNH3CHCFe2H2CS2CFeHCS2HCFeSHCH4CHCSNHCHCH2C3SH2C2HCH9C2HCNH4Fe2C2FeSCSH3FeCSHSHCH2CNCHCSHCH2CFeCHSCHCFeH3S
_chemical_formula_sum              "H256 S64 C160 Fe32 N16"
_cell_length_a       18.6001
_cell_length_b       12.6817
_cell_length_c       33.4804
_cell_angle_alpha    102.558
_cell_angle_beta     79.6441
_cell_angle_gamma    103.489

_space_group_name_H-M_alt    "P 1"
_space_group_IT_number       1

loop_
  _space_group_symop_operation_xyz
  'x, y, z'

loop_
  _atom_site_type_symbol
  _atom_site_label
  _atom_site_symmetry_multiplicity
  _atom_site_fract_x
  _atom_site_fract_y
  _atom_site_fract_z
  _atom_site_occupancy
  H   H1        1.0  0.38417  0.92245  0.41602  1.0000
  S   S1        1.0  0.56744  0.10592  0.53822  1.0000
  C   C1        1.0  0.23699  0.86947  0.44619  1.0000
  H   H2        1.0  0.21490  0.91333  0.42717  1.0000
  Fe  Fe1       1.0  0.49675  0.19689  0.51669  1.0000
  C   C2        1.0  0.13244  0.17609  0.47986  1.0000
  S   S2        1.0  0.52450  0.30499  0.46873  1.0000
  C   C3        1.0  0.25830  0.85559  0.55780  1.0000
  H   H3        1.0  0.53276  0.92164  0.47000  1.0000
  Fe  Fe2       1.0  0.33557  0.21944  0.53702  1.0000
  H   H4        1.0  0.26833  0.93287  0.46873  1.0000
  S   S3        1.0  0.34726  0.33082  0.49210  1.0000
  S   S4        1.0  0.39288  0.09659  0.49249  1.0000
  H   H5        1.0  0.13215  0.15687  0.44579  1.0000
  Fe  Fe3       1.0  0.41355  0.21492  0.44941  1.0000
  H   H6        1.0  0.19149  0.20666  0.48554  1.0000
  C   C4        1.0  0.12579  0.84206  0.55968  1.0000
  H   H7        1.0  0.14753  0.32064  0.55183  1.0000
  C   C5        1.0  0.26931  0.97063  0.56330  1.0000
  H   H8        1.0  0.21170  0.08331  0.65409  1.0000
  H   H9        1.0  0.56819  0.20859  0.62064  1.0000
  H   H10       1.0  0.24052  0.13983  0.70425  1.0000
  C   C6        1.0  0.19260  0.12071  0.68637  1.0000
  H   H11       1.0  0.17892  0.20070  0.68519  1.0000
  H   H12       1.0  0.57664  0.18761  0.67052  1.0000
  C   C7        1.0  0.14680  0.93950  0.70349  1.0000
  C   C8        1.0  0.60048  0.24120  0.64712  1.0000
  S   S5        1.0  0.43769  0.31116  0.56509  1.0000
  S   S6        1.0  0.22319  0.16469  0.57156  1.0000
  H   H13       1.0  0.16188  0.89892  0.67101  1.0000
  N   N1        1.0  0.12763  0.04729  0.70527  1.0000
  H   H14       1.0  0.60789  0.88413  0.64500  1.0000
  H   H15       1.0  0.58992  0.32522  0.66090  1.0000
  C   C9        1.0  0.20879  0.02132  0.56634  1.0000
  H   H16       1.0  0.32459  0.02019  0.56611  1.0000
  H   H17       1.0  0.19467  0.94874  0.72056  1.0000
  C   C10       1.0  0.13698  0.95704  0.56454  1.0000
  C   C11       1.0  0.16333  0.09199  0.87018  1.0000
  H   H18       1.0  0.42609  0.91799  0.82631  1.0000
  C   C12       1.0  0.60998  0.02189  0.79980  1.0000
  H   H19       1.0  0.49469  0.95329  0.88539  1.0000
  C   C13       1.0  0.54824  0.96736  0.86421  1.0000
  C   C14       1.0  0.26158  0.24895  0.88803  1.0000
  C   C15       1.0  0.27730  0.06494  0.88842  1.0000
  H   H20       1.0  0.59025  0.02614  0.88239  1.0000
  H   H21       1.0  0.55989  0.17975  0.85796  1.0000
  C   C16       1.0  0.18996  0.20629  0.87711  1.0000
  N   N2        1.0  0.53885  0.00933  0.82798  1.0000
  H   H22       1.0  0.46361  0.11083  0.86379  1.0000
  S   S7        1.0  0.13438  0.29837  0.87439  1.0000
  C   C17       1.0  0.51646  0.11736  0.84193  1.0000
  H   H23       1.0  0.50709  0.15042  0.81549  1.0000
  H   H24       1.0  0.15372  0.11186  0.76729  1.0000
  S   S8        1.0  0.57953  0.29723  0.75418  1.0000
  H   H25       1.0  0.56655  0.88700  0.85484  1.0000
  C   C18       1.0  0.20710  0.02116  0.87564  1.0000
  H   H26       1.0  0.18560  0.93312  0.87122  1.0000
  H   H27       1.0  0.47186  0.95928  0.77838  1.0000
  H   H28       1.0  0.60500  0.05601  0.77265  1.0000
  C   C19       1.0  0.48057  0.93034  0.80592  1.0000
  C   C20       1.0  0.30518  0.17855  0.89363  1.0000
  H   H29       1.0  0.49608  0.84830  0.79488  1.0000
  H   H30       1.0  0.28302  0.33673  0.89303  1.0000
  H   H31       1.0  0.12624  0.02984  0.02095  1.0000
  S   S9        1.0  0.34398  0.23320  0.99081  1.0000
  Fe  Fe4       1.0  0.45478  0.06251  0.02876  1.0000
  H   H32       1.0  0.61504  0.11703  0.99605  1.0000
  S   S10       1.0  0.52579  0.98052  0.05460  1.0000
  Fe  Fe5       1.0  0.37166  0.06964  0.96050  1.0000
  Fe  Fe6       1.0  0.46039  0.28033  0.00683  1.0000
  H   H33       1.0  0.36018  0.21277  0.90246  1.0000
  H   H34       1.0  0.15379  0.14868  0.96933  1.0000
  Fe  Fe7       1.0  0.31625  0.16179  0.04835  1.0000
  S   S11       1.0  0.49208  0.12510  0.96912  1.0000
  S   S12       1.0  0.33585  0.99368  0.01735  1.0000
  S   S13       1.0  0.32720  0.97953  0.90169  1.0000
  C   C21       1.0  0.61527  0.98368  0.02627  1.0000
  H   H35       1.0  0.40847  0.84543  0.19523  1.0000
  H   H36       1.0  0.33544  0.90095  0.18395  1.0000
  N   N3        1.0  0.17343  0.21784  0.21596  1.0000
  H   H37       1.0  0.16314  0.08321  0.16429  1.0000
  H   H38       1.0  0.43017  0.93877  0.15952  1.0000
  H   H39       1.0  0.24077  0.10520  0.22006  1.0000
  C   C22       1.0  0.61847  0.30609  0.08264  1.0000
  C   C23       1.0  0.12841  0.13584  0.18673  1.0000
  H   H40       1.0  0.58963  0.22365  0.06776  1.0000
  H   H41       1.0  0.26978  0.23695  0.16982  1.0000
  S   S14       1.0  0.21560  0.20646  0.08978  1.0000
  C   C24       1.0  0.23435  0.28751  0.19278  1.0000
  C   C25       1.0  0.60782  0.24016  0.14614  1.0000
  S   S15       1.0  0.57369  0.90416  0.19029  1.0000
  H   H42       1.0  0.57906  0.15648  0.13204  1.0000
  H   H43       1.0  0.21194  0.33585  0.17556  1.0000
  C   C26       1.0  0.38723  0.86956  0.17019  1.0000
  C   C27       1.0  0.21059  0.33462  0.07979  1.0000
  H   H44       1.0  0.56413  0.28810  0.16150  1.0000
  S   S16       1.0  0.42997  0.22091  0.06671  1.0000
  H   H45       1.0  0.38052  0.88361  0.09318  1.0000
  H   H46       1.0  0.53300  0.25583  0.35672  1.0000
  C   C28       1.0  0.51545  0.10965  0.28471  1.0000
  H   H47       1.0  0.57503  0.31652  0.31258  1.0000
  N   N4        1.0  0.58225  0.14703  0.30618  1.0000
  C   C29       1.0  0.58099  0.25788  0.33149  1.0000
  H   H48       1.0  0.16128  0.20695  0.34328  1.0000
  H   H49       1.0  0.25050  0.09203  0.34641  1.0000
  H   H50       1.0  0.32701  0.90402  0.37615  1.0000
  C   C30       1.0  0.58246  0.06935  0.33327  1.0000
  H   H51       1.0  0.23072  0.92406  0.26068  1.0000
  C   C31       1.0  0.21099  0.24440  0.35735  1.0000
  H   H52       1.0  0.51336  0.16748  0.26443  1.0000
  H   H53       1.0  0.51507  0.02712  0.26495  1.0000
  C   C32       1.0  0.32616  0.22770  0.37753  1.0000
  H   H54       1.0  0.53123  0.06182  0.35644  1.0000
  C   C33       1.0  0.26202  0.17964  0.35867  1.0000
  H   H55       1.0  0.16035  0.10801  0.25853  1.0000
  H   H56       1.0  0.23967  0.22016  0.26266  1.0000
  H   H57       1.0  0.46324  0.10366  0.30696  1.0000
  S   S17       1.0  0.38378  0.14571  0.38575  1.0000
  C   C34       1.0  0.34725  0.85981  0.39582  1.0000
  H   H58       1.0  0.58474  0.98520  0.31525  1.0000
  C   C35       1.0  0.20523  0.16033  0.24037  1.0000
  C   C36       1.0  0.34110  0.34084  0.39314  1.0000
  S   S18       1.0  0.53742  0.84748  0.38353  1.0000
  C   C37       1.0  0.12546  0.28794  0.24411  1.0000
  C   C38       1.0  0.31483  0.74188  0.44673  1.0000
  C   C39       1.0  0.52247  0.83253  0.46441  1.0000
  S   S19       1.0  0.17133  0.64915  0.55450  1.0000
  N   N5        1.0  0.28483  0.79560  0.42013  1.0000
  C   C40       1.0  0.51073  0.77709  0.49762  1.0000
  H   H59       1.0  0.51277  0.82400  0.52870  1.0000
  H   H60       1.0  0.48464  0.51315  0.44467  1.0000
  S   S20       1.0  0.48639  0.59467  0.53257  1.0000
  H   H61       1.0  0.35191  0.68660  0.42807  1.0000
  H   H62       1.0  0.30529  0.81685  0.55553  1.0000
  H   H63       1.0  0.61313  0.53619  0.47325  1.0000
  H   H64       1.0  0.18873  0.82269  0.46438  1.0000
  H   H65       1.0  0.17433  0.39547  0.48697  1.0000
  C   C41       1.0  0.49477  0.60220  0.45026  1.0000
  Fe  Fe8       1.0  0.45587  0.41125  0.51530  1.0000
  C   C42       1.0  0.18636  0.79144  0.55662  1.0000
  C   C43       1.0  0.49701  0.66193  0.49063  1.0000
  H   H66       1.0  0.34875  0.80383  0.46873  1.0000
  H   H67       1.0  0.19095  0.66329  0.40884  1.0000
  H   H68       1.0  0.39138  0.37860  0.40694  1.0000
  H   H69       1.0  0.26927  0.69139  0.46522  1.0000
  C   C44       1.0  0.52149  0.77358  0.42403  1.0000
  C   C45       1.0  0.50759  0.65809  0.41690  1.0000
  H   H70       1.0  0.30166  0.49238  0.40454  1.0000
  H   H71       1.0  0.35463  0.60462  0.69549  1.0000
  C   C46       1.0  0.60393  0.74510  0.67300  1.0000
  S   S21       1.0  0.44548  0.44096  0.71661  1.0000
  H   H72       1.0  0.27344  0.54913  0.57972  1.0000
  H   H73       1.0  0.24568  0.68009  0.69071  1.0000
  H   H74       1.0  0.33841  0.73512  0.60917  1.0000
  S   S22       1.0  0.51473  0.74942  0.69987  1.0000
  H   H75       1.0  0.21082  0.65516  0.64194  1.0000
  C   C47       1.0  0.29844  0.51523  0.60070  1.0000
  C   C48       1.0  0.23849  0.61994  0.66136  1.0000
  H   H76       1.0  0.37195  0.75955  0.65840  1.0000
  H   H77       1.0  0.30807  0.46877  0.67387  1.0000
  H   H78       1.0  0.41692  0.68149  0.61397  1.0000
  H   H79       1.0  0.39951  0.52773  0.65038  1.0000
  H   H80       1.0  0.19959  0.54431  0.66965  1.0000
  C   C49       1.0  0.36144  0.69745  0.62986  1.0000
  C   C50       1.0  0.34460  0.54664  0.66597  1.0000
  N   N6        1.0  0.31066  0.59488  0.63946  1.0000
  H   H81       1.0  0.26069  0.43644  0.60671  1.0000
  H   H82       1.0  0.35198  0.49535  0.58346  1.0000
  H   H83       1.0  0.61551  0.60372  0.69543  1.0000
  H   H84       1.0  0.57496  0.44138  0.83400  1.0000
  S   S23       1.0  0.40648  0.41587  0.81449  1.0000
  C   C51       1.0  0.18421  0.56239  0.77775  1.0000
  S   S24       1.0  0.46472  0.70796  0.89052  1.0000
  C   C52       1.0  0.13615  0.63193  0.77661  1.0000
  C   C53       1.0  0.17172  0.45304  0.75655  1.0000
  Fe  Fe9       1.0  0.50571  0.41989  0.76558  1.0000
  S   S25       1.0  0.38303  0.63796  0.78675  1.0000
  H   H85       1.0  0.15851  0.64333  0.87622  1.0000
  Fe  Fe10      1.0  0.48236  0.62163  0.73953  1.0000
  S   S26       1.0  0.23543  0.36769  0.75298  1.0000
  H   H86       1.0  0.23943  0.50579  0.86863  1.0000
  H   H87       1.0  0.31783  0.61954  0.87026  1.0000
  S   S27       1.0  0.55294  0.60028  0.78335  1.0000
  C   C54       1.0  0.27437  0.56956  0.88963  1.0000
  Fe  Fe11      1.0  0.34977  0.45505  0.76749  1.0000
  H   H88       1.0  0.23059  0.59346  0.79502  1.0000
  Fe  Fe12      1.0  0.44952  0.59908  0.82908  1.0000
  H   H89       1.0  0.43803  0.47586  0.89245  1.0000
  H   H90       1.0  0.23911  0.75377  0.87925  1.0000
  H   H91       1.0  0.14736  0.71748  0.79176  1.0000
  H   H92       1.0  0.32193  0.55397  0.04102  1.0000
  S   S28       1.0  0.19718  0.65794  0.04592  1.0000
  H   H93       1.0  0.32334  0.77319  0.93102  1.0000
  H   H94       1.0  0.52792  0.78349  0.96671  1.0000
  C   C55       1.0  0.51287  0.52094  0.98102  1.0000
  C   C56       1.0  0.48199  0.63627  0.92582  1.0000
  H   H95       1.0  0.55602  0.68117  0.01543  1.0000
  C   C57       1.0  0.53050  0.63637  0.98843  1.0000
  H   H96       1.0  0.13132  0.51119  0.92363  1.0000
  N   N7        1.0  0.22931  0.63996  0.91989  1.0000
  S   S29       1.0  0.53433  0.44778  0.01429  1.0000
  H   H97       1.0  0.24579  0.77322  0.97166  1.0000
  C   C58       1.0  0.20216  0.52912  0.05531  1.0000
  C   C59       1.0  0.51448  0.69417  0.96093  1.0000
  C   C60       1.0  0.27136  0.50072  0.05231  1.0000
  H   H98       1.0  0.30493  0.67575  0.96502  1.0000
  H   H99       1.0  0.13615  0.62065  0.96794  1.0000
  C   C61       1.0  0.27788  0.71904  0.94811  1.0000
  C   C62       1.0  0.47937  0.46341  0.94638  1.0000
  C   C63       1.0  0.16993  0.57009  0.94386  1.0000
  H   H100      1.0  0.19384  0.52060  0.95987  1.0000
  H   H101      1.0  0.16177  0.75596  0.91977  1.0000
  H   H102      1.0  0.46612  0.37423  0.94043  1.0000
  C   C64       1.0  0.46420  0.52109  0.91880  1.0000
  C   C65       1.0  0.19543  0.70088  0.89780  1.0000
  H   H103      1.0  0.30372  0.52682  0.90537  1.0000
  H   H104      1.0  0.57538  0.35686  0.09569  1.0000
  C   C66       1.0  0.27561  0.40497  0.06548  1.0000
  C   C67       1.0  0.44357  0.73875  0.11753  1.0000
  H   H105      1.0  0.26402  0.70841  0.16531  1.0000
  N   N8        1.0  0.37296  0.77546  0.13584  1.0000
  H   H106      1.0  0.46876  0.71374  0.14080  1.0000
  S   S30       1.0  0.48803  0.60326  0.20903  1.0000
  C   C68       1.0  0.34286  0.81017  0.10390  1.0000
  H   H107      1.0  0.33895  0.65645  0.17625  1.0000
  C   C69       1.0  0.31831  0.68394  0.15177  1.0000
  H   H108      1.0  0.30651  0.61113  0.12690  1.0000
  H   H109      1.0  0.43490  0.66737  0.09155  1.0000
  H   H110      1.0  0.48579  0.80604  0.10508  1.0000
  C   C70       1.0  0.13713  0.45849  0.06941  1.0000
  C   C71       1.0  0.14138  0.36288  0.08267  1.0000
  H   H111      1.0  0.32961  0.38599  0.06464  1.0000
  H   H112      1.0  0.33681  0.74401  0.07616  1.0000
  H   H113      1.0  0.27115  0.34726  0.21373  1.0000
  H   H114      1.0  0.28688  0.83076  0.11539  1.0000
  C   C72       1.0  0.22586  0.65174  0.25721  1.0000
  S   S31       1.0  0.61372  0.74204  0.26995  1.0000
  H   H115      1.0  0.30829  0.80019  0.27070  1.0000
  H   H116      1.0  0.15797  0.35358  0.26576  1.0000
  H   H117      1.0  0.61625  0.57387  0.31690  1.0000
  S   S32       1.0  0.15955  0.43910  0.37695  1.0000
  Fe  Fe13      1.0  0.51810  0.74950  0.32093  1.0000
  Fe  Fe14      1.0  0.53932  0.77945  0.23171  1.0000
  H   H118      1.0  0.13152  0.52126  0.24364  1.0000
  C   C73       1.0  0.25325  0.76583  0.26258  1.0000
  C   C74       1.0  0.15351  0.60883  0.24740  1.0000
  Fe  Fe15      1.0  0.55411  0.56677  0.25237  1.0000
  H   H119      1.0  0.50761  0.61180  0.38581  1.0000
  H   H120      1.0  0.21891  0.74780  0.36993  1.0000
  S   S33       1.0  0.46301  0.57145  0.30622  1.0000
  Fe  Fe16      1.0  0.40256  0.62731  0.26498  1.0000
  S   S34       1.0  0.44941  0.80635  0.28463  1.0000
  C   C75       1.0  0.20904  0.83612  0.25708  1.0000
  S   S35       1.0  0.28085  0.55993  0.26108  1.0000
  H   H121      1.0  0.27331  0.65056  0.37235  1.0000
  C   C76       1.0  0.24010  0.71081  0.39160  1.0000
  H   H122      1.0  0.38269  0.80523  0.37507  1.0000
  C   C77       1.0  0.22466  0.35703  0.37447  1.0000
  C   C78       1.0  0.13793  0.79194  0.24549  1.0000
  C   C79       1.0  0.29050  0.40538  0.39157  1.0000
  C   C80       1.0  0.00803  0.21348  0.49266  1.0000
  H   H123      1.0  0.11197  0.09776  0.49198  1.0000
  C   C81       1.0  0.75196  0.15119  0.45416  1.0000
  C   C82       1.0  0.68743  0.00911  0.50988  1.0000
  C   C83       1.0  0.78806  0.06918  0.45789  1.0000
  H   H124      1.0  0.07034  0.20765  0.55890  1.0000
  C   C84       1.0  0.08973  0.28332  0.54494  1.0000
  C   C85       1.0  0.68312  0.16157  0.47816  1.0000
  H   H125      1.0  0.66233  0.95341  0.53117  1.0000
  H   H126      1.0  0.98416  0.13694  0.50566  1.0000
  C   C86       1.0  0.75617  0.99892  0.48596  1.0000
  C   C87       1.0  0.65087  0.09036  0.50598  1.0000
  H   H127      1.0  0.97146  0.27338  0.50734  1.0000
  N   N9        1.0  0.08627  0.25833  0.50008  1.0000
  H   H128      1.0  0.65558  0.22520  0.47545  1.0000
  H   H129      1.0  0.78495  0.93710  0.48927  1.0000
  S   S36       1.0  0.87309  0.05354  0.42762  1.0000
  H   H130      1.0  0.00339  0.19301  0.45908  1.0000
  H   H131      1.0  0.77698  0.20669  0.43289  1.0000
  H   H132      1.0  0.78272  0.29943  0.66101  1.0000
  H   H133      1.0  0.70420  0.24288  0.69452  1.0000
  C   C88       1.0  0.72173  0.29324  0.66993  1.0000
  C   C89       1.0  0.89528  0.17804  0.71765  1.0000
  H   H134      1.0  0.87657  0.00695  0.60753  1.0000
  S   S37       1.0  0.90492  0.23602  0.60216  1.0000
  H   H135      1.0  0.91320  0.32083  0.68917  1.0000
  H   H136      1.0  0.76998  0.30947  0.59048  1.0000
  H   H137      1.0  0.67784  0.07979  0.64466  1.0000
  H   H138      1.0  0.73443  0.88002  0.60654  1.0000
  H   H139      1.0  0.86464  0.91269  0.66651  1.0000
  C   C90       1.0  0.88186  0.05525  0.63818  1.0000
  H   H140      1.0  0.65695  0.08411  0.59510  1.0000
  C   C91       1.0  0.89653  0.17039  0.64435  1.0000
  C   C92       1.0  0.70948  0.30784  0.60105  1.0000
  H   H141      1.0  0.68002  0.27199  0.57363  1.0000
  C   C93       1.0  0.90290  0.23188  0.68415  1.0000
  C   C94       1.0  0.87468  0.00172  0.67158  1.0000
  H   H142      1.0  0.04638  0.11024  0.68395  1.0000
  C   C95       1.0  0.88175  0.06267  0.71130  1.0000
  N   N10       1.0  0.68099  0.24264  0.63427  1.0000
  H   H143      1.0  0.75136  0.12604  0.60594  1.0000
  C   C96       1.0  0.69239  0.12829  0.61933  1.0000
  H   H144      1.0  0.01483  0.97303  0.69479  1.0000
  C   C97       1.0  0.06402  0.03111  0.68223  1.0000
  H   H145      1.0  0.07815  0.99641  0.64902  1.0000
  H   H146      1.0  0.09776  0.32755  0.72007  1.0000
  H   H147      1.0  0.09888  0.88233  0.71764  1.0000
  H   H148      1.0  0.08999  0.99584  0.56680  1.0000
  S   S38       1.0  0.95552  0.27552  0.82384  1.0000
  H   H149      1.0  0.79790  0.27327  0.81044  1.0000
  Fe  Fe17      1.0  0.89885  0.09745  0.81289  1.0000
  H   H150      1.0  0.65584  0.07853  0.81571  1.0000
  C   C98       1.0  0.74910  0.30950  0.81588  1.0000
  S   S39       1.0  0.80250  0.11365  0.86289  1.0000
  C   C99       1.0  0.10686  0.09715  0.74887  1.0000
  S   S40       1.0  0.87726  0.99181  0.75166  1.0000
  S   S41       1.0  0.96585  0.04788  0.85228  1.0000
  Fe  Fe18      1.0  0.01375  0.22799  0.86828  1.0000
  H   H151      1.0  0.71160  0.22180  0.75868  1.0000
  C   C100      1.0  0.70046  0.28140  0.78622  1.0000
  Fe  Fe19      1.0  0.86363  0.28936  0.87676  1.0000
  C   C101      1.0  0.63830  0.33013  0.79230  1.0000
  H   H152      1.0  0.05783  0.04353  0.76383  1.0000
  H   H153      1.0  0.90003  0.22599  0.74818  1.0000
  H   H154      1.0  0.62729  0.94129  0.78766  1.0000
  H   H155      1.0  0.84297  0.87100  0.82337  1.0000
  H   H156      1.0  0.09190  0.17852  0.75157  1.0000
  H   H157      1.0  0.10912  0.05786  0.86094  1.0000
  H   H158      1.0  0.00809  0.01763  0.93955  1.0000
  H   H159      1.0  0.76476  0.86514  0.01618  1.0000
  H   H160      1.0  0.03138  0.98178  0.04269  1.0000
  Fe  Fe20      1.0  0.87517  0.08294  0.90379  1.0000
  C   C102      1.0  0.07096  0.05336  0.03169  1.0000
  S   S42       1.0  0.92728  0.26070  0.92290  1.0000
  H   H161      1.0  0.63771  0.86107  0.05503  1.0000
  H   H162      1.0  0.73657  0.10822  0.95288  1.0000
  C   C103      1.0  0.10059  0.17685  0.98255  1.0000
  H   H163      1.0  0.08152  0.20505  0.95770  1.0000
  H   H164      1.0  0.98329  0.92644  0.97608  1.0000
  C   C104      1.0  0.71501  0.05383  0.97495  1.0000
  H   H165      1.0  0.98401  0.20251  0.04169  1.0000
  N   N11       1.0  0.04343  0.08848  0.99892  1.0000
  C   C105      1.0  0.64492  0.05676  0.99869  1.0000
  H   H166      1.0  0.93017  0.06509  0.02934  1.0000
  C   C106      1.0  0.02785  0.99343  0.96508  1.0000
  C   C107      1.0  0.75677  0.98051  0.98001  1.0000
  H   H167      1.0  0.07867  0.95903  0.95185  1.0000
  C   C108      1.0  0.73006  0.91507  0.01013  1.0000
  C   C109      1.0  0.97412  0.12976  0.01635  1.0000
  C   C110      1.0  0.65885  0.91453  0.03257  1.0000
  S   S43       1.0  0.84147  0.96688  0.94858  1.0000
  H   H168      1.0  0.95065  0.15484  0.99241  1.0000
  H   H169      1.0  0.11389  0.25002  0.00707  1.0000
  H   H170      1.0  0.07735  0.12031  0.05916  1.0000
  C   C111      1.0  0.90987  0.15618  0.16372  1.0000
  H   H171      1.0  0.08284  0.08024  0.20313  1.0000
  N   N12       1.0  0.66007  0.29622  0.11482  1.0000
  H   H172      1.0  0.90620  0.06816  0.15415  1.0000
  C   C112      1.0  0.69144  0.97206  0.13432  1.0000
  H   H173      1.0  0.78484  0.02758  0.09035  1.0000
  H   H174      1.0  0.10185  0.17642  0.16857  1.0000
  H   H175      1.0  0.74985  0.22153  0.11956  1.0000
  C   C113      1.0  0.92556  0.20760  0.20341  1.0000
  H   H176      1.0  0.66203  0.03500  0.13335  1.0000
  C   C114      1.0  0.71785  0.23100  0.09590  1.0000
  C   C115      1.0  0.89771  0.21817  0.13661  1.0000
  C   C116      1.0  0.79898  0.88611  0.11128  1.0000
  C   C117      1.0  0.93101  0.32160  0.21554  1.0000
  H   H177      1.0  0.88511  0.17802  0.10603  1.0000
  S   S44       1.0  0.88668  0.88405  0.08122  1.0000
  C   C118      1.0  0.65968  0.89452  0.15964  1.0000
  H   H178      1.0  0.63752  0.23037  0.17077  1.0000
  S   S45       1.0  0.07475  0.86763  0.11894  1.0000
  H   H179      1.0  0.09079  0.30980  0.09405  1.0000
  C   C119      1.0  0.76075  0.96769  0.11007  1.0000
  H   H180      1.0  0.69298  0.14697  0.08052  1.0000
  H   H181      1.0  0.75883  0.27089  0.07233  1.0000
  C   C120      1.0  0.90260  0.33189  0.14900  1.0000
  H   H182      1.0  0.09759  0.32830  0.22659  1.0000
  H   H183      1.0  0.87689  0.97914  0.30114  1.0000
  C   C121      1.0  0.87993  0.89549  0.28283  1.0000
  S   S46       1.0  0.08639  0.87695  0.23329  1.0000
  H   H184      1.0  0.93188  0.90460  0.26026  1.0000
  H   H185      1.0  0.70169  0.18242  0.28993  1.0000
  H   H186      1.0  0.80528  0.89186  0.35880  1.0000
  S   S47       1.0  0.84043  0.21652  0.34662  1.0000
  H   H187      1.0  0.83204  0.86849  0.26476  1.0000
  S   S48       1.0  0.00941  0.17206  0.34198  1.0000
  H   H188      1.0  0.94363  0.93752  0.35222  1.0000
  Fe  Fe21      1.0  0.94492  0.22253  0.30158  1.0000
  Fe  Fe22      1.0  0.90934  0.18451  0.38926  1.0000
  H   H189      1.0  0.64989  0.20589  0.25330  1.0000
  C   C122      1.0  0.64985  0.15117  0.27515  1.0000
  H   H190      1.0  0.65331  0.06803  0.25628  1.0000
  H   H191      1.0  0.99795  0.86245  0.31090  1.0000
  S   S49       1.0  0.93783  0.12808  0.23740  1.0000
  H   H192      1.0  0.08057  0.23815  0.26289  1.0000
  H   H193      1.0  0.63298  0.29247  0.34593  1.0000
  C   C123      1.0  0.94472  0.85523  0.33238  1.0000
  H   H194      1.0  0.63129  0.09635  0.35066  1.0000
  C   C124      1.0  0.67430  0.54583  0.46416  1.0000
  H   H195      1.0  0.69972  0.44269  0.52037  1.0000
  H   H196      1.0  0.82812  0.64057  0.51306  1.0000
  H   H197      1.0  0.81661  0.65865  0.46313  1.0000
  H   H198      1.0  0.71908  0.56352  0.55951  1.0000
  C   C125      1.0  0.68943  0.52770  0.53214  1.0000
  C   C126      1.0  0.79574  0.60485  0.48671  1.0000
  H   H199      1.0  0.73482  0.75361  0.54055  1.0000
  H   H200      1.0  0.07016  0.79248  0.55800  1.0000
  C   C127      1.0  0.69923  0.70830  0.51646  1.0000
  H   H201      1.0  0.68670  0.46313  0.44973  1.0000
  H   H202      1.0  0.80936  0.52258  0.47279  1.0000
  H   H203      1.0  0.08248  0.42558  0.49810  1.0000
  H   H204      1.0  0.69024  0.59777  0.43999  1.0000
  H   H205      1.0  0.64002  0.70531  0.53051  1.0000
  S   S50       1.0  0.94820  0.36232  0.41620  1.0000
  N   N13       1.0  0.71470  0.59665  0.49993  1.0000
  H   H206      1.0  0.71015  0.75840  0.49177  1.0000
  H   H207      1.0  0.62856  0.52121  0.54301  1.0000
  H   H208      1.0  0.11109  0.34504  0.44927  1.0000
  C   C128      1.0  0.11479  0.36052  0.48289  1.0000
  H   H209      1.0  0.05349  0.34208  0.56107  1.0000
  C   C129      1.0  0.71318  0.66178  0.65448  1.0000
  Fe  Fe23      1.0  0.90376  0.63812  0.61782  1.0000
  Fe  Fe24      1.0  0.93956  0.41936  0.61849  1.0000
  H   H210      1.0  0.01166  0.44808  0.72004  1.0000
  H   H211      1.0  0.74172  0.59856  0.65648  1.0000
  C   C130      1.0  0.64174  0.66468  0.67644  1.0000
  S   S51       1.0  0.05123  0.49513  0.63867  1.0000
  S   S52       1.0  0.01172  0.73372  0.63898  1.0000
  C   C131      1.0  0.63736  0.82255  0.64783  1.0000
  Fe  Fe25      1.0  0.99076  0.61628  0.68263  1.0000
  H   H212      1.0  0.71140  0.37739  0.68363  1.0000
  C   C132      1.0  0.74629  0.73894  0.62902  1.0000
  S   S53       1.0  0.87686  0.53146  0.66622  1.0000
  S   S54       1.0  0.83199  0.73102  0.59812  1.0000
  H   H213      1.0  0.70198  0.39452  0.61156  1.0000
  C   C133      1.0  0.70860  0.81970  0.62596  1.0000
  Fe  Fe26      1.0  0.06191  0.60480  0.59332  1.0000
  S   S55       1.0  0.95591  0.51798  0.56846  1.0000
  H   H214      1.0  0.71584  0.77998  0.84574  1.0000
  C   C134      1.0  0.73405  0.69944  0.83678  1.0000
  H   H215      1.0  0.86650  0.59196  0.76642  1.0000
  H   H216      1.0  0.75061  0.68223  0.86472  1.0000
  H   H217      1.0  0.88098  0.77517  0.84173  1.0000
  H   H218      1.0  0.68470  0.63486  0.82839  1.0000
  C   C135      1.0  0.73550  0.38569  0.85190  1.0000
  H   H219      1.0  0.83910  0.57530  0.81912  1.0000
  C   C136      1.0  0.85953  0.78941  0.81479  1.0000
  S   S56       1.0  0.79814  0.42240  0.88803  1.0000
  N   N14       1.0  0.79615  0.70090  0.80232  1.0000
  H   H220      1.0  0.66108  0.49079  0.88669  1.0000
  C   C137      1.0  0.67259  0.43316  0.85850  1.0000
  H   H221      1.0  0.90678  0.79565  0.78917  1.0000
  C   C138      1.0  0.81960  0.59345  0.79222  1.0000
  H   H222      1.0  0.75290  0.80184  0.77221  1.0000
  H   H223      1.0  0.77301  0.52462  0.78285  1.0000
  C   C139      1.0  0.07528  0.59141  0.75453  1.0000
  C   C140      1.0  0.77173  0.72188  0.76559  1.0000
  C   C141      1.0  0.62391  0.40534  0.82863  1.0000
  S   S57       1.0  0.02265  0.68050  0.74626  1.0000
  H   H224      1.0  0.72495  0.65565  0.75463  1.0000
  H   H225      1.0  0.81823  0.72693  0.73948  1.0000
  C   C142      1.0  0.10865  0.41181  0.73629  1.0000
  C   C143      1.0  0.06027  0.48060  0.73567  1.0000
  H   H226      1.0  0.70232  0.42381  0.99830  1.0000
  C   C144      1.0  0.71745  0.63074  0.04507  1.0000
  H   H227      1.0  0.79471  0.44550  0.97099  1.0000
  H   H228      1.0  0.87099  0.62599  0.97262  1.0000
  H   H229      1.0  0.71763  0.72031  0.05048  1.0000
  H   H230      1.0  0.75917  0.60239  0.94097  1.0000
  H   H231      1.0  0.78262  0.45839  0.02576  1.0000
  H   H232      1.0  0.83971  0.74560  0.00288  1.0000
  H   H233      1.0  0.65814  0.58689  0.04755  1.0000
  H   H234      1.0  0.71009  0.69480  0.97731  1.0000
  H   H235      1.0  0.66960  0.55109  0.96734  1.0000
  C   C145      1.0  0.72299  0.61117  0.97116  1.0000
  C   C146      1.0  0.83686  0.65668  0.00188  1.0000
  H   H236      1.0  0.86393  0.65105  0.02806  1.0000
  C   C147      1.0  0.75953  0.47505  0.99983  1.0000
  N   N15       1.0  0.75913  0.59357  0.00444  1.0000
  H   H237      1.0  0.65603  0.34518  0.05795  1.0000
  H   H238      1.0  0.92414  0.47213  0.19785  1.0000
  H   H239      1.0  0.72774  0.40249  0.15920  1.0000
  H   H240      1.0  0.65424  0.45912  0.14930  1.0000
  Fe  Fe27      1.0  0.95176  0.57944  0.12758  1.0000
  Fe  Fe28      1.0  0.95624  0.79868  0.10677  1.0000
  C   C148      1.0  0.69653  0.81047  0.16003  1.0000
  C   C149      1.0  0.92033  0.38408  0.18822  1.0000
  Fe  Fe29      1.0  0.09586  0.70089  0.08728  1.0000
  S   S58       1.0  0.91772  0.73303  0.16580  1.0000
  C   C150      1.0  0.69604  0.40730  0.13459  1.0000
  S   S59       1.0  0.88477  0.40805  0.11570  1.0000
  H   H241      1.0  0.73652  0.45134  0.11197  1.0000
  H   H242      1.0  0.79306  0.73948  0.13523  1.0000
  H   H243      1.0  0.67150  0.74866  0.17887  1.0000
  Fe  Fe30      1.0  0.03825  0.78928  0.17521  1.0000
  C   C151      1.0  0.76606  0.80619  0.13573  1.0000
  S   S60       1.0  0.06748  0.62726  0.14430  1.0000
  H   H244      1.0  0.08312  0.47735  0.07019  1.0000
  S   S61       1.0  0.98266  0.64177  0.06831  1.0000
  H   H245      1.0  0.74239  0.61674  0.07076  1.0000
  C   C152      1.0  0.68109  0.46519  0.27508  1.0000
  H   H246      1.0  0.69133  0.60636  0.37308  1.0000
  H   H247      1.0  0.80956  0.75387  0.36119  1.0000
  C   C153      1.0  0.81038  0.80969  0.33957  1.0000
  N   N16       1.0  0.87947  0.81682  0.30966  1.0000
  C   C154      1.0  0.66357  0.53492  0.31233  1.0000
  H   H248      1.0  0.88579  0.64668  0.30307  1.0000
  C   C155      1.0  0.88308  0.70700  0.28397  1.0000
  S   S62       1.0  0.81670  0.51965  0.38096  1.0000
  H   H249      1.0  0.94602  0.79740  0.35282  1.0000
  C   C156      1.0  0.70568  0.55200  0.34458  1.0000
  H   H250      1.0  0.75977  0.77811  0.32373  1.0000
  H   H251      1.0  0.83038  0.38974  0.29841  1.0000
  C   C157      1.0  0.76530  0.49872  0.33994  1.0000
  Fe  Fe31      1.0  0.88905  0.39455  0.36865  1.0000
  C   C158      1.0  0.78371  0.42999  0.30247  1.0000
  H   H252      1.0  0.83334  0.67320  0.26748  1.0000
  S   S63       1.0  0.98904  0.40378  0.32030  1.0000
  C   C159      1.0  0.74203  0.41405  0.26986  1.0000
  H   H253      1.0  0.93357  0.71098  0.26029  1.0000
  C   C160      1.0  0.10975  0.67855  0.24141  1.0000
  Fe  Fe32      1.0  0.04398  0.35287  0.36511  1.0000
  H   H254      1.0  0.94304  0.36205  0.24588  1.0000
  H   H255      1.0  0.75668  0.36135  0.24082  1.0000
  H   H256      1.0  0.05424  0.64401  0.23333  1.0000
  S   S64       1.0  0.62329  0.43693  0.23658  1.0000
