data_image0
_chemical_formula_structural       HS2C4H2C2H4CHCH4NCH2FeCFeC2H2SCHNFeCHSH2CHSHCHNC3HSCFeH2CHSH2C2H6CH3CFe2SC3HCH2SNS2C2H2CNH2CHCH5CH4CHCH2CH6C3H2SFeSH3C2HCH2C3HCSNCHCSH6CH2CFeHC3S4H2FeHCFeHFeCSCHSHCH5SCSHFeNHC2H2CH2CHCHCFeS2FeS2C2HCHCHCHCSHSCH5NCH5CHCHSH4FeNH2C2SCHFeCHCH3C2FeH2S2HCS3FeC3H12FeH2SCNC2H2CH5NC2H2C4SCSH2CHS2CFeHCH2CHFeSH2S2CHSC2SCHC3HNSFeSH3FeH6C3HCH2SFeCFeCHCSCFeHCHCH3SHCH2C2SFeCHSHC3H2SCFeCSHFeH6SH3SCHCH3CNC2H3C2H2NC2H2CH8C2HCHCHFeHFeHSC2SCSHCH2SHCHNHC3SH4C2H5C2HCHSH4C2HFeCH2NHCHCSH3
_chemical_formula_sum              "H256 S64 C160 N16 Fe32"
_cell_length_a       29.0949
_cell_length_b       29.172
_cell_length_c       35.4365
_cell_angle_alpha    90.202
_cell_angle_beta     89.6621
_cell_angle_gamma    81.7919

_space_group_name_H-M_alt    "P 1"
_space_group_IT_number       1

loop_
  _space_group_symop_operation_xyz
  'x, y, z'

loop_
  _atom_site_type_symbol
  _atom_site_label
  _atom_site_symmetry_multiplicity
  _atom_site_fract_x
  _atom_site_fract_y
  _atom_site_fract_z
  _atom_site_occupancy
  H   H1        1.0  0.20749  0.05213  0.08989  1.0000
  S   S1        1.0  0.26807  0.06425  0.25107  1.0000
  S   S2        1.0  0.12524  0.24320  0.21724  1.0000
  C   C1        1.0  0.16331  0.19197  0.22560  1.0000
  C   C2        1.0  0.20484  0.18324  0.20489  1.0000
  C   C3        1.0  0.23630  0.14286  0.21129  1.0000
  C   C4        1.0  0.22678  0.11174  0.23921  1.0000
  H   H2        1.0  0.21312  0.20838  0.18451  1.0000
  H   H3        1.0  0.12153  0.09870  0.13166  1.0000
  C   C5        1.0  0.14625  0.15972  0.08025  1.0000
  C   C6        1.0  0.22203  0.13835  0.10749  1.0000
  H   H4        1.0  0.24557  0.11179  0.12335  1.0000
  H   H5        1.0  0.24027  0.14498  0.08077  1.0000
  H   H6        1.0  0.16185  0.16852  0.05290  1.0000
  H   H7        1.0  0.14003  0.19202  0.09758  1.0000
  C   C7        1.0  0.18412  0.08060  0.07609  1.0000
  H   H8        1.0  0.17785  0.08626  0.15287  1.0000
  C   C8        1.0  0.15485  0.11239  0.13619  1.0000
  H   H9        1.0  0.21779  0.17085  0.12437  1.0000
  H   H10       1.0  0.20079  0.08723  0.04863  1.0000
  H   H11       1.0  0.15088  0.06749  0.06990  1.0000
  H   H12       1.0  0.11179  0.14910  0.07415  1.0000
  N   N1        1.0  0.17680  0.12270  0.10002  1.0000
  C   C9        1.0  0.15327  0.16019  0.25277  1.0000
  H   H13       1.0  0.14707  0.14396  0.15419  1.0000
  H   H14       1.0  0.26882  0.13676  0.19586  1.0000
  Fe  Fe1       1.0  0.07169  0.26742  0.26223  1.0000
  C   C10       1.0  0.18521  0.12039  0.25984  1.0000
  Fe  Fe2       1.0  0.31545  0.01951  0.11697  1.0000
  C   C11       1.0  0.50594  0.05397  0.07068  1.0000
  C   C12       1.0  0.29384  0.03162  0.02353  1.0000
  H   H15       1.0  0.40070  0.07650  0.02794  1.0000
  H   H16       1.0  0.44987  0.10701  0.02300  1.0000
  S   S3        1.0  0.35830  0.04250  0.16402  1.0000
  C   C13       1.0  0.43928  0.07291  0.03026  1.0000
  H   H17       1.0  0.44383  0.12747  0.09102  1.0000
  N   N2        1.0  0.45475  0.05810  0.06855  1.0000
  Fe  Fe3       1.0  0.30172  0.02340  0.20176  1.0000
  C   C14       1.0  0.43356  0.09277  0.09641  1.0000
  H   H18       1.0  0.46184  0.03806  0.18548  1.0000
  S   S4        1.0  0.30914  0.06175  0.06359  1.0000
  H   H19       1.0  0.39492  0.09642  0.09574  1.0000
  H   H20       1.0  0.44453  0.08278  0.12562  1.0000
  C   C15       1.0  0.49696  0.02426  0.17731  1.0000
  H   H21       1.0  0.40176  0.01416  0.07453  1.0000
  S   S5        1.0  0.08889  0.26600  0.40232  1.0000
  H   H22       1.0  0.17771  0.16097  0.33345  1.0000
  C   C16       1.0  0.07605  0.26901  0.47909  1.0000
  H   H23       1.0  0.11337  0.26021  0.48068  1.0000
  N   N3        1.0  0.21017  0.22133  0.34494  1.0000
  C   C17       1.0  0.19954  0.26533  0.36618  1.0000
  C   C18       1.0  0.21816  0.23141  0.30477  1.0000
  C   C19       1.0  0.25222  0.19362  0.36054  1.0000
  H   H24       1.0  0.18632  0.25040  0.29157  1.0000
  S   S6        1.0  0.08541  0.32289  0.30316  1.0000
  C   C20       1.0  0.05448  0.27400  0.44373  1.0000
  Fe  Fe4       1.0  0.05318  0.28037  0.34618  1.0000
  H   H25       1.0  0.26100  0.16011  0.34506  1.0000
  H   H26       1.0  0.16254  0.18803  0.37834  1.0000
  C   C21       1.0  0.17065  0.19489  0.34829  1.0000
  H   H27       1.0  0.13859  0.21439  0.33609  1.0000
  S   S7        1.0  0.04468  0.22237  0.30599  1.0000
  H   H28       1.0  0.19228  0.25908  0.39651  1.0000
  H   H29       1.0  0.16797  0.28701  0.35496  1.0000
  C   C22       1.0  0.06445  0.46490  0.28795  1.0000
  C   C23       1.0  0.09149  0.50129  0.28904  1.0000
  H   H30       1.0  0.22820  0.19898  0.28824  1.0000
  H   H31       1.0  0.24645  0.25297  0.30123  1.0000
  H   H32       1.0  0.12878  0.49347  0.29172  1.0000
  H   H33       1.0  0.24720  0.18535  0.39081  1.0000
  H   H34       1.0  0.22863  0.28617  0.36470  1.0000
  H   H35       1.0  0.17775  0.09622  0.28136  1.0000
  C   C24       1.0  0.04955  0.27550  0.51252  1.0000
  H   H36       1.0  0.08098  0.42937  0.28972  1.0000
  H   H37       1.0  0.12109  0.16630  0.26850  1.0000
  H   H38       1.0  0.28284  0.21240  0.35844  1.0000
  C   C25       1.0  0.01619  0.47465  0.28422  1.0000
  Fe  Fe5       1.0  0.05055  0.34590  0.66783  1.0000
  Fe  Fe6       1.0  0.08065  0.24232  0.65670  1.0000
  S   S8        1.0  0.14333  0.18711  0.65344  1.0000
  C   C26       1.0  0.24492  0.13769  0.72603  1.0000
  C   C27       1.0  0.17453  0.17401  0.69524  1.0000
  C   C28       1.0  0.15416  0.18499  0.73056  1.0000
  H   H39       1.0  0.23637  0.14297  0.66578  1.0000
  C   C29       1.0  0.22018  0.15098  0.69304  1.0000
  H   H40       1.0  0.11875  0.20210  0.73254  1.0000
  H   H41       1.0  0.06653  0.27141  0.53955  1.0000
  S   S9        1.0  0.07835  0.30305  0.61774  1.0000
  N   N4        1.0  0.19772  0.31726  0.72100  1.0000
  S   S10       1.0  0.05832  0.28552  0.70772  1.0000
  S   S11       1.0  0.08550  0.40846  0.68225  1.0000
  C   C30       1.0  0.05398  0.46482  0.67994  1.0000
  C   C31       1.0  0.21263  0.36351  0.71830  1.0000
  H   H42       1.0  0.18330  0.39016  0.70947  1.0000
  H   H43       1.0  0.17952  0.07666  0.71672  1.0000
  C   C32       1.0  0.18126  0.03991  0.70797  1.0000
  N   N5        1.0  0.15487  0.03519  0.67295  1.0000
  H   H44       1.0  0.24102  0.36376  0.69717  1.0000
  H   H45       1.0  0.17992  0.09198  0.64493  1.0000
  C   C33       1.0  0.17830  0.05453  0.64082  1.0000
  H   H46       1.0  0.12892  0.34423  0.74035  1.0000
  C   C34       1.0  0.15949  0.31894  0.74886  1.0000
  H   H47       1.0  0.10813  0.09830  0.68232  1.0000
  H   H48       1.0  0.28002  0.11953  0.72421  1.0000
  H   H49       1.0  0.21861  0.02548  0.70451  1.0000
  H   H50       1.0  0.08897  0.04738  0.70170  1.0000
  H   H51       1.0  0.21460  0.03686  0.63718  1.0000
  C   C35       1.0  0.10739  0.06061  0.67734  1.0000
  H   H52       1.0  0.11402  0.49799  0.69172  1.0000
  H   H53       1.0  0.08631  0.05766  0.65157  1.0000
  H   H54       1.0  0.22526  0.37485  0.74591  1.0000
  H   H55       1.0  0.15272  0.32969  0.67307  1.0000
  C   C36       1.0  0.18144  0.30379  0.68368  1.0000
  H   H56       1.0  0.20971  0.30047  0.66216  1.0000
  C   C37       1.0  0.07721  0.50326  0.68582  1.0000
  H   H57       1.0  0.15958  0.05100  0.61390  1.0000
  H   H58       1.0  0.16804  0.27009  0.68495  1.0000
  C   C38       1.0  0.23714  0.28282  0.73308  1.0000
  H   H59       1.0  0.14756  0.28453  0.75188  1.0000
  H   H60       1.0  0.22698  0.24750  0.73490  1.0000
  H   H61       1.0  0.26678  0.28076  0.71287  1.0000
  H   H62       1.0  0.24995  0.29137  0.76142  1.0000
  H   H63       1.0  0.50654  0.06589  0.74110  1.0000
  H   H64       1.0  0.16759  0.02130  0.73200  1.0000
  C   C39       1.0  0.22449  0.14849  0.76134  1.0000
  C   C40       1.0  0.17936  0.17277  0.76358  1.0000
  C   C41       1.0  0.51315  0.03926  0.76236  1.0000
  H   H65       1.0  0.05026  0.51289  0.56853  1.0000
  H   H66       1.0  0.16355  0.18120  0.79093  1.0000
  S   S12       1.0  0.25565  0.13348  0.80272  1.0000
  Fe  Fe7       1.0  0.28114  0.05704  0.80687  1.0000
  S   S13       1.0  0.32775  0.02876  0.85414  1.0000
  H   H67       1.0  0.45426  0.04743  0.00850  1.0000
  H   H68       1.0  0.17034  0.32952  0.77726  1.0000
  H   H69       1.0  0.30591  0.08579  0.98504  1.0000
  C   C42       1.0  0.29551  0.05179  0.98781  1.0000
  C   C43       1.0  0.28377  0.02811  0.95546  1.0000
  H   H70       1.0  0.28488  0.04406  0.92807  1.0000
  C   C44       1.0  0.47615  0.01772  0.77625  1.0000
  H   H71       1.0  0.44136  0.02780  0.76571  1.0000
  H   H72       1.0  0.18741  0.80956  0.16341  1.0000
  C   C45       1.0  0.17195  0.80793  0.22306  1.0000
  C   C46       1.0  0.23071  0.87581  0.22972  1.0000
  C   C47       1.0  0.22297  0.85767  0.19413  1.0000
  H   H73       1.0  0.14957  0.78158  0.22022  1.0000
  C   C48       1.0  0.19342  0.82376  0.19090  1.0000
  S   S14       1.0  0.07732  0.72038  0.25034  1.0000
  N   N6        1.0  0.04407  0.90168  0.22839  1.0000
  C   C49       1.0  0.08778  0.91967  0.21910  1.0000
  H   H74       1.0  0.08375  0.95806  0.22169  1.0000
  C   C50       1.0  0.44003  0.01275  0.07691  1.0000
  S   S15       1.0  0.46524  0.93986  0.16790  1.0000
  H   H75       1.0  0.20463  0.66746  0.24377  1.0000
  H   H76       1.0  0.07761  0.83378  0.24307  1.0000
  H   H77       1.0  0.22150  0.72317  0.25454  1.0000
  H   H78       1.0  0.01832  0.83630  0.22908  1.0000
  H   H79       1.0  0.11631  0.90530  0.23839  1.0000
  H   H80       1.0  0.09976  0.91014  0.18983  1.0000
  C   C51       1.0  0.27971  0.98798  0.02691  1.0000
  H   H81       1.0  0.06220  0.84053  0.19416  1.0000
  H   H82       1.0  0.44948  0.00145  0.10611  1.0000
  C   C52       1.0  0.18015  0.82583  0.25868  1.0000
  Fe  Fe8       1.0  0.29273  0.93492  0.15971  1.0000
  H   H83       1.0  0.25330  0.90200  0.23254  1.0000
  C   C53       1.0  0.05090  0.85087  0.22342  1.0000
  C   C54       1.0  0.20963  0.85969  0.26188  1.0000
  C   C55       1.0  0.50815  0.97714  0.16876  1.0000
  S   S16       1.0  0.25600  0.00752  0.15432  1.0000
  S   S17       1.0  0.33519  0.94966  0.20979  1.0000
  S   S18       1.0  0.34869  0.94561  0.11785  1.0000
  S   S19       1.0  0.24981  0.87646  0.15336  1.0000
  H   H84       1.0  0.45669  0.98519  0.05752  1.0000
  H   H85       1.0  0.27777  0.97232  0.05440  1.0000
  Fe  Fe9       1.0  0.38824  0.96734  0.16762  1.0000
  H   H86       1.0  0.28406  0.63179  0.26379  1.0000
  C   C56       1.0  0.07046  0.54763  0.28676  1.0000
  Fe  Fe10      1.0  0.06949  0.66631  0.29414  1.0000
  H   H87       1.0  0.07583  0.71252  0.42006  1.0000
  Fe  Fe11      1.0  0.09626  0.76339  0.29870  1.0000
  C   C57       1.0  0.05827  0.72147  0.44648  1.0000
  S   S20       1.0  0.09435  0.70740  0.34170  1.0000
  C   C58       1.0  0.08298  0.71481  0.48040  1.0000
  H   H88       1.0  0.11949  0.70087  0.47976  1.0000
  S   S21       1.0  0.15427  0.80714  0.29992  1.0000
  H   H89       1.0  0.21612  0.87375  0.28933  1.0000
  C   C59       1.0  0.21350  0.63270  0.31330  1.0000
  H   H90       1.0  0.21266  0.60580  0.29100  1.0000
  H   H91       1.0  0.19679  0.71994  0.33953  1.0000
  H   H92       1.0  0.17695  0.64277  0.32282  1.0000
  H   H93       1.0  0.23322  0.61623  0.33768  1.0000
  H   H94       1.0  0.25377  0.69468  0.35407  1.0000
  S   S22       1.0  0.10539  0.59259  0.28796  1.0000
  C   C60       1.0  0.02220  0.55731  0.28315  1.0000
  S   S23       1.0  0.02338  0.79633  0.31099  1.0000
  H   H95       1.0  0.03953  0.57936  0.50041  1.0000
  Fe  Fe12      1.0  0.01944  0.73631  0.34975  1.0000
  N   N7        1.0  0.23381  0.67306  0.29906  1.0000
  H   H96       1.0  0.24651  0.73988  0.31912  1.0000
  C   C61       1.0  0.23287  0.70827  0.32931  1.0000
  C   C62       1.0  0.28228  0.65806  0.28683  1.0000
  H   H97       1.0  0.30393  0.64240  0.31055  1.0000
  H   H98       1.0  0.05831  0.89736  0.28790  1.0000
  C   C63       1.0  0.20650  0.69335  0.26666  1.0000
  H   H99       1.0  0.17037  0.70661  0.27543  1.0000
  H   H100      1.0  0.02595  0.95137  0.27298  1.0000
  C   C64       1.0  0.03101  0.91327  0.26805  1.0000
  H   H101      1.0  0.29855  0.68782  0.27602  1.0000
  C   C65       1.0  0.06081  0.72631  0.51508  1.0000
  H   H102      1.0  0.07113  0.57794  0.68930  1.0000
  C   C66       1.0  0.05300  0.54858  0.68442  1.0000
  Fe  Fe13      1.0  0.07119  0.74573  0.69741  1.0000
  S   S24       1.0  0.11504  0.76559  0.74604  1.0000
  S   S25       1.0  0.09309  0.71636  0.55694  1.0000
  Fe  Fe14      1.0  0.05692  0.72910  0.61338  1.0000
  S   S26       1.0  0.08262  0.68149  0.66101  1.0000
  S   S27       1.0  0.05261  0.79354  0.64879  1.0000
  C   C67       1.0  0.14836  0.81135  0.74071  1.0000
  C   C68       1.0  0.20194  0.88445  0.73367  1.0000
  H   H103      1.0  0.14101  0.81618  0.68044  1.0000
  C   C69       1.0  0.15523  0.83030  0.70530  1.0000
  H   H104      1.0  0.18824  0.87994  0.67412  1.0000
  C   C70       1.0  0.18206  0.86652  0.70181  1.0000
  H   H105      1.0  0.13186  0.98069  0.63998  1.0000
  C   C71       1.0  0.15260  0.98566  0.66556  1.0000
  H   H106      1.0  0.13699  0.96912  0.68982  1.0000
  C   C72       1.0  0.06297  0.58543  0.52406  1.0000
  S   S28       1.0  0.32062  0.01202  0.76246  1.0000
  H   H107      1.0  0.09328  0.55748  0.52324  1.0000
  S   S29       1.0  0.23526  0.93009  0.72761  1.0000
  C   C73       1.0  0.07098  0.59523  0.59119  1.0000
  H   H108      1.0  0.09991  0.56610  0.59385  1.0000
  H   H109      1.0  0.07619  0.61885  0.51837  1.0000
  H   H110      1.0  0.18799  0.96606  0.66102  1.0000
  H   H111      1.0  0.08313  0.89707  0.74819  1.0000
  H   H112      1.0  0.08660  0.62731  0.58602  1.0000
  N   N8        1.0  0.03856  0.58682  0.56084  1.0000
  C   C74       1.0  0.02130  0.54227  0.56761  1.0000
  H   H113      1.0  0.02788  0.91169  0.69515  1.0000
  H   H114      1.0  0.04124  0.83489  0.72345  1.0000
  H   H115      1.0  0.05285  0.59966  0.61891  1.0000
  H   H116      1.0  0.16289  0.81489  0.80016  1.0000
  H   H117      1.0  0.20970  0.87956  0.79396  1.0000
  C   C75       1.0  0.19450  0.86606  0.76922  1.0000
  H   H118      1.0  0.05210  0.94352  0.77575  1.0000
  C   C76       1.0  0.16797  0.82945  0.77266  1.0000
  H   H119      1.0  0.06272  0.88566  0.79438  1.0000
  S   S30       1.0  0.22785  0.00998  0.81752  1.0000
  H   H120      1.0  0.40187  0.97037  0.94569  1.0000
  H   H121      1.0  0.46799  0.89386  0.90332  1.0000
  H   H122      1.0  0.34238  0.88585  0.89330  1.0000
  H   H123      1.0  0.39627  0.88536  0.86801  1.0000
  Fe  Fe15      1.0  0.26982  0.96255  0.77621  1.0000
  N   N9        1.0  0.39948  0.90024  0.92735  1.0000
  H   H124      1.0  0.35292  0.96276  0.91724  1.0000
  H   H125      1.0  0.38779  0.83796  0.89838  1.0000
  C   C77       1.0  0.48449  0.98256  0.80309  1.0000
  C   C78       1.0  0.27005  0.98423  0.95872  1.0000
  S   S31       1.0  0.25809  0.95220  0.91853  1.0000
  C   C79       1.0  0.45009  0.88542  0.92983  1.0000
  H   H126      1.0  0.25668  0.93070  0.99736  1.0000
  Fe  Fe16      1.0  0.36303  0.97910  0.81095  1.0000
  C   C80       1.0  0.38076  0.87624  0.89535  1.0000
  H   H127      1.0  0.38313  0.85074  0.96844  1.0000
  C   C81       1.0  0.37648  0.88856  0.96265  1.0000
  H   H128      1.0  0.45826  0.84738  0.93424  1.0000
  H   H129      1.0  0.38846  0.90708  0.98742  1.0000
  H   H130      1.0  0.40859  0.96114  0.89564  1.0000
  C   C82       1.0  0.26760  0.96449  0.99459  1.0000
  C   C83       1.0  0.39046  0.95082  0.92132  1.0000
  Fe  Fe17      1.0  0.27781  0.97777  0.86124  1.0000
  H   H131      1.0  0.46538  0.90303  0.95358  1.0000
  H   H132      1.0  0.33810  0.89838  0.96094  1.0000
  S   S32       1.0  0.31529  0.92587  0.82064  1.0000
  S   S33       1.0  0.43974  0.95250  0.81972  1.0000
  H   H133      1.0  0.02104  0.82496  0.77001  1.0000
  C   C84       1.0  0.05370  0.90625  0.76835  1.0000
  S   S34       1.0  0.61870  0.07452  0.16105  1.0000
  S   S35       1.0  0.74650  0.06896  0.19888  1.0000
  S   S36       1.0  0.73500  0.07710  0.10745  1.0000
  Fe  Fe18      1.0  0.69621  0.04950  0.15550  1.0000
  C   C85       1.0  0.53144  0.05352  0.17564  1.0000
  C   C86       1.0  0.57744  0.03586  0.16572  1.0000
  C   C87       1.0  0.77900  0.15308  0.04245  1.0000
  H   H134      1.0  0.75556  0.12748  0.03494  1.0000
  H   H135      1.0  0.52319  0.02912  0.04934  1.0000
  H   H136      1.0  0.77692  0.15812  0.07363  1.0000
  H   H137      1.0  0.76473  0.18658  0.02921  1.0000
  H   H138      1.0  0.51876  0.04112  0.09878  1.0000
  H   H139      1.0  0.52253  0.08999  0.18210  1.0000
  H   H140      1.0  0.51839  0.08790  0.06620  1.0000
  H   H141      1.0  0.89373  0.16107  0.03181  1.0000
  H   H142      1.0  0.82198  0.06598  0.04212  1.0000
  H   H143      1.0  0.71446  0.03990  0.03477  1.0000
  H   H144      1.0  0.88587  0.43337  0.24763  1.0000
  H   H145      1.0  0.84497  0.20617  0.02711  1.0000
  Fe  Fe19      1.0  0.78848  0.08967  0.15026  1.0000
  H   H146      1.0  0.85669  0.17786  0.07160  1.0000
  H   H147      1.0  0.79175  0.40343  0.22869  1.0000
  S   S37       1.0  0.00112  0.30358  0.24614  1.0000
  C   C88       1.0  0.85701  0.17215  0.04048  1.0000
  N   N10       1.0  0.85648  0.36976  0.25070  1.0000
  C   C89       1.0  0.88439  0.40107  0.23105  1.0000
  C   C90       1.0  0.85607  0.32723  0.22797  1.0000
  H   H148      1.0  0.89197  0.30923  0.22297  1.0000
  H   H149      1.0  0.93940  0.23032  0.21370  1.0000
  C   C91       1.0  0.80847  0.39327  0.25616  1.0000
  H   H150      1.0  0.80348  0.14546  0.22363  1.0000
  H   H151      1.0  0.87015  0.41109  0.20275  1.0000
  H   H152      1.0  0.83977  0.33482  0.19996  1.0000
  H   H153      1.0  0.84534  0.09628  0.07949  1.0000
  H   H154      1.0  0.90612  0.19956  0.15598  1.0000
  N   N11       1.0  0.82722  0.13720  0.02992  1.0000
  C   C92       1.0  0.89086  0.19454  0.18328  1.0000
  C   C93       1.0  0.83310  0.16387  0.22130  1.0000
  H   H155      1.0  0.92107  0.38449  0.22707  1.0000
  H   H156      1.0  0.83681  0.30198  0.24264  1.0000
  C   C94       1.0  0.84456  0.09267  0.04826  1.0000
  C   C95       1.0  0.85252  0.17038  0.18591  1.0000
  C   C96       1.0  0.85098  0.18262  0.25373  1.0000
  C   C97       1.0  0.90968  0.21205  0.21591  1.0000
  S   S38       1.0  0.82806  0.15089  0.14442  1.0000
  C   C98       1.0  0.88916  0.20689  0.25117  1.0000
  S   S39       1.0  0.82989  0.01944  0.14266  1.0000
  H   H157      1.0  0.88030  0.07876  0.03870  1.0000
  H   H158      1.0  0.91279  0.33817  0.28422  1.0000
  C   C99       1.0  0.00125  0.28706  0.51079  1.0000
  H   H159      1.0  0.98906  0.28838  0.41506  1.0000
  S   S40       1.0  0.90763  0.23336  0.29213  1.0000
  S   S41       1.0  0.98140  0.31735  0.33749  1.0000
  C   C100      1.0  0.97965  0.29158  0.47545  1.0000
  Fe  Fe20      1.0  0.97512  0.26313  0.29329  1.0000
  H   H160      1.0  0.85710  0.33403  0.30389  1.0000
  C   C101      1.0  0.87731  0.35725  0.28780  1.0000
  H   H161      1.0  0.88031  0.38837  0.30541  1.0000
  H   H162      1.0  0.94231  0.30027  0.47385  1.0000
  C   C102      1.0  0.00615  0.28506  0.44204  1.0000
  H   H163      1.0  0.83498  0.17844  0.28091  1.0000
  Fe  Fe21      1.0  0.01235  0.35542  0.29101  1.0000
  S   S42       1.0  0.98091  0.43010  0.28193  1.0000
  H   H164      1.0  0.80776  0.42521  0.27359  1.0000
  H   H165      1.0  0.78668  0.37028  0.27082  1.0000
  S   S43       1.0  0.60454  0.05188  0.75523  1.0000
  S   S44       1.0  0.00895  0.22809  0.64256  1.0000
  C   C103      1.0  0.91858  0.17808  0.70725  1.0000
  H   H166      1.0  0.98805  0.44268  0.66822  1.0000
  S   S45       1.0  0.96691  0.29573  0.55217  1.0000
  C   C104      1.0  0.84273  0.17163  0.75524  1.0000
  C   C105      1.0  0.86640  0.21046  0.75694  1.0000
  S   S46       1.0  0.93131  0.26441  0.73404  1.0000
  C   C106      1.0  0.82517  0.22372  0.63270  1.0000
  H   H167      1.0  0.94824  0.17990  0.68921  1.0000
  C   C107      1.0  0.90411  0.21402  0.73272  1.0000
  C   C108      1.0  0.89860  0.20470  0.60004  1.0000
  C   C109      1.0  0.89451  0.13967  0.70511  1.0000
  H   H168      1.0  0.79608  0.25124  0.64046  1.0000
  N   N12       1.0  0.86117  0.24255  0.61027  1.0000
  S   S47       1.0  0.82569  0.08889  0.72343  1.0000
  Fe  Fe22      1.0  0.00453  0.29276  0.60787  1.0000
  S   S48       1.0  0.97603  0.34061  0.65507  1.0000
  H   H169      1.0  0.92667  0.21793  0.58355  1.0000
  H   H170      1.0  0.88531  0.17776  0.58255  1.0000
  H   H171      1.0  0.91481  0.18737  0.62555  1.0000
  Fe  Fe23      1.0  0.98592  0.27621  0.69069  1.0000
  H   H172      1.0  0.86720  0.27830  0.55793  1.0000
  H   H173      1.0  0.82524  0.23871  0.55774  1.0000
  H   H174      1.0  0.89804  0.26246  0.65863  1.0000
  H   H175      1.0  0.81041  0.19616  0.61700  1.0000
  H   H176      1.0  0.81266  0.29342  0.58204  1.0000
  H   H177      1.0  0.85330  0.30623  0.64219  1.0000
  C   C110      1.0  0.00636  0.47199  0.67259  1.0000
  C   C111      1.0  0.88063  0.27778  0.63285  1.0000
  C   C112      1.0  0.84051  0.26417  0.57547  1.0000
  H   H178      1.0  0.90542  0.11231  0.68492  1.0000
  C   C113      1.0  0.85643  0.13637  0.72898  1.0000
  H   H179      1.0  0.90682  0.29372  0.61637  1.0000
  H   H180      1.0  0.83958  0.20820  0.65958  1.0000
  S   S49       1.0  0.71265  0.10471  0.79662  1.0000
  Fe  Fe24      1.0  0.67673  0.04412  0.78055  1.0000
  C   C114      1.0  0.55854  0.02657  0.77573  1.0000
  Fe  Fe25      1.0  0.73725  0.06075  0.84675  1.0000
  C   C115      1.0  0.74535  0.05565  0.94331  1.0000
  H   H181      1.0  0.68912  0.08728  0.97872  1.0000
  C   C116      1.0  0.72016  0.06198  0.97718  1.0000
  S   S50       1.0  0.72825  0.09182  0.90505  1.0000
  C   C117      1.0  0.78572  0.02331  0.94150  1.0000
  Fe  Fe26      1.0  0.77634  0.06734  0.76760  1.0000
  H   H182      1.0  0.80632  0.10454  0.97979  1.0000
  C   C118      1.0  0.73479  0.03564  0.00906  1.0000
  H   H183      1.0  0.81469  0.16356  0.97365  1.0000
  C   C119      1.0  0.82823  0.13089  0.98850  1.0000
  H   H184      1.0  0.85515  0.23807  0.77683  1.0000
  H   H185      1.0  0.81334  0.16945  0.77368  1.0000
  H   H186      1.0  0.80600  0.01937  0.91569  1.0000
  S   S51       1.0  0.80379  0.02807  0.81922  1.0000
  H   H187      1.0  0.86402  0.11904  0.97788  1.0000
  C   C120      1.0  0.55424  0.95937  0.15938  1.0000
  H   H188      1.0  0.62406  0.97459  0.15021  1.0000
  H   H189      1.0  0.56324  0.92288  0.15299  1.0000
  C   C121      1.0  0.58879  0.98858  0.15785  1.0000
  C   C122      1.0  0.91782  0.85196  0.25707  1.0000
  S   S52       1.0  0.73125  0.97591  0.14880  1.0000
  Fe  Fe27      1.0  0.77333  0.00502  0.10350  1.0000
  C   C123      1.0  0.00662  0.92270  0.20314  1.0000
  H   H190      1.0  0.89081  0.82452  0.16738  1.0000
  S   S53       1.0  0.81694  0.95956  0.23946  1.0000
  H   H191      1.0  0.00013  0.96107  0.20630  1.0000
  C   C124      1.0  0.85756  0.90988  0.23181  1.0000
  C   C125      1.0  0.89011  0.84388  0.19355  1.0000
  C   C126      1.0  0.91872  0.82666  0.22348  1.0000
  H   H192      1.0  0.83706  0.89842  0.17467  1.0000
  H   H193      1.0  0.01529  0.91451  0.17301  1.0000
  S   S54       1.0  0.95416  0.77282  0.21876  1.0000
  C   C127      1.0  0.88701  0.89322  0.26136  1.0000
  Fe  Fe28      1.0  0.78468  0.99733  0.18851  1.0000
  C   C128      1.0  0.85976  0.88567  0.19758  1.0000
  S   S55       1.0  0.79503  0.97126  0.04732  1.0000
  H   H194      1.0  0.97320  0.90961  0.20939  1.0000
  Fe  Fe29      1.0  0.00384  0.74921  0.26564  1.0000
  H   H195      1.0  0.85026  0.70800  0.35372  1.0000
  H   H196      1.0  0.88025  0.84567  0.33602  1.0000
  H   H197      1.0  0.92694  0.79870  0.34169  1.0000
  H   H198      1.0  0.99799  0.90049  0.27593  1.0000
  H   H199      1.0  0.87363  0.73947  0.39123  1.0000
  H   H200      1.0  0.90945  0.71876  0.35202  1.0000
  S   S56       1.0  0.99396  0.69128  0.30510  1.0000
  H   H201      1.0  0.83908  0.74323  0.29029  1.0000
  H   H202      1.0  0.95236  0.76502  0.48227  1.0000
  H   H203      1.0  0.80823  0.80395  0.38201  1.0000
  S   S57       1.0  0.97930  0.74827  0.40461  1.0000
  C   C129      1.0  0.89051  0.81172  0.35005  1.0000
  H   H204      1.0  0.89079  0.81797  0.38109  1.0000
  C   C130      1.0  0.98879  0.75081  0.48165  1.0000
  H   H205      1.0  0.93974  0.83911  0.28016  1.0000
  H   H206      1.0  0.79920  0.83047  0.33643  1.0000
  H   H207      1.0  0.88552  0.91220  0.28775  1.0000
  C   C131      1.0  0.87349  0.73414  0.36007  1.0000
  N   N13       1.0  0.85903  0.77812  0.33998  1.0000
  C   C132      1.0  0.86115  0.76962  0.29878  1.0000
  C   C133      1.0  0.81101  0.79712  0.35108  1.0000
  H   H208      1.0  0.78621  0.77277  0.34379  1.0000
  H   H209      1.0  0.84897  0.80177  0.28271  1.0000
  H   H210      1.0  0.89724  0.75687  0.28910  1.0000
  C   C134      1.0  0.99524  0.52097  0.28177  1.0000
  C   C135      1.0  0.01112  0.73960  0.44692  1.0000
  H   H211      1.0  0.00565  0.59274  0.28093  1.0000
  H   H212      1.0  0.95799  0.52880  0.27872  1.0000
  N   N14       1.0  0.64909  0.92349  0.70445  1.0000
  C   C136      1.0  0.66552  0.87775  0.68734  1.0000
  C   C137      1.0  0.59776  0.93236  0.70382  1.0000
  H   H213      1.0  0.58210  0.90670  0.72109  1.0000
  H   H214      1.0  0.58420  0.93110  0.67460  1.0000
  C   C138      1.0  0.66788  0.95993  0.68274  1.0000
  H   H215      1.0  0.65628  0.99496  0.69504  1.0000
  H   H216      1.0  0.70657  0.95443  0.68252  1.0000
  H   H217      1.0  0.65429  0.87616  0.65744  1.0000
  H   H218      1.0  0.65181  0.84947  0.70293  1.0000
  H   H219      1.0  0.65612  0.96081  0.65290  1.0000
  H   H220      1.0  0.70418  0.87004  0.68764  1.0000
  H   H221      1.0  0.65108  0.89758  0.76130  1.0000
  H   H222      1.0  0.70390  0.91684  0.74551  1.0000
  C   C139      1.0  0.66528  0.92400  0.74390  1.0000
  C   C140      1.0  0.98210  0.51726  0.67145  1.0000
  H   H223      1.0  0.01096  0.65882  0.55633  1.0000
  C   C141      1.0  0.99896  0.62466  0.56071  1.0000
  H   H224      1.0  0.97951  0.62648  0.58802  1.0000
  C   C142      1.0  0.00019  0.92224  0.71658  1.0000
  H   H225      1.0  0.98030  0.83710  0.73217  1.0000
  Fe  Fe30      1.0  0.97949  0.78188  0.66152  1.0000
  H   H226      1.0  0.94517  0.52251  0.66601  1.0000
  Fe  Fe31      1.0  0.00708  0.67730  0.67067  1.0000
  H   H227      1.0  0.00249  0.54271  0.59514  1.0000
  S   S58       1.0  0.92664  0.84642  0.66123  1.0000
  C   C143      1.0  0.83815  0.91715  0.73608  1.0000
  C   C144      1.0  0.00530  0.55571  0.67720  1.0000
  S   S59       1.0  0.98201  0.72210  0.62134  1.0000
  C   C145      1.0  0.88925  0.85938  0.70021  1.0000
  S   S60       1.0  0.97352  0.61187  0.67392  1.0000
  H   H228      1.0  0.82278  0.95276  0.73989  1.0000
  C   C146      1.0  0.88116  0.82566  0.72648  1.0000
  H   H229      1.0  0.89761  0.79025  0.72278  1.0000
  H   H230      1.0  0.99766  0.96023  0.72129  1.0000
  S   S61       1.0  0.99742  0.73692  0.71186  1.0000
  H   H231      1.0  0.96689  0.91564  0.70378  1.0000
  C   C147      1.0  0.86767  0.90507  0.70516  1.0000
  H   H232      1.0  0.99626  0.75380  0.54220  1.0000
  N   N15       1.0  0.00948  0.89622  0.75211  1.0000
  H   H233      1.0  0.87408  0.93142  0.68512  1.0000
  C   C148      1.0  0.01306  0.84615  0.74416  1.0000
  C   C149      1.0  0.85055  0.83758  0.75703  1.0000
  C   C150      1.0  0.82870  0.88335  0.76171  1.0000
  S   S62       1.0  0.73777  0.01103  0.74651  1.0000
  H   H234      1.0  0.58446  0.96730  0.71541  1.0000
  H   H235      1.0  0.65412  0.95828  0.75742  1.0000
  H   H236      1.0  0.97401  0.62000  0.53784  1.0000
  H   H237      1.0  0.99683  0.53461  0.54521  1.0000
  C   C151      1.0  0.01359  0.74436  0.51566  1.0000
  C   C152      1.0  0.52992  0.96969  0.81637  1.0000
  H   H238      1.0  0.53662  0.94249  0.83710  1.0000
  H   H239      1.0  0.69557  0.86006  0.88994  1.0000
  H   H240      1.0  0.60141  0.98171  0.81356  1.0000
  H   H241      1.0  0.68614  0.91845  0.94042  1.0000
  H   H242      1.0  0.71438  0.90283  0.85928  1.0000
  C   C153      1.0  0.72641  0.87536  0.88015  1.0000
  C   C154      1.0  0.56673  0.99187  0.80304  1.0000
  H   H243      1.0  0.70900  0.96153  0.91256  1.0000
  C   C155      1.0  0.71872  0.93104  0.93120  1.0000
  H   H244      1.0  0.97699  0.89085  0.80622  1.0000
  S   S63       1.0  0.69748  0.00263  0.83226  1.0000
  H   H245      1.0  0.93735  0.90208  0.76766  1.0000
  H   H246      1.0  0.96673  0.94764  0.78544  1.0000
  H   H247      1.0  0.73622  0.84130  0.95061  1.0000
  H   H248      1.0  0.84360  0.81122  0.77681  1.0000
  C   C156      1.0  0.97101  0.90987  0.77912  1.0000
  C   C157      1.0  0.77534  0.00364  0.00746  1.0000
  H   H249      1.0  0.74979  0.84795  0.86460  1.0000
  Fe  Fe32      1.0  0.76157  0.97423  0.79953  1.0000
  C   C158      1.0  0.80098  0.99773  0.97374  1.0000
  H   H250      1.0  0.73472  0.94372  0.95691  1.0000
  H   H251      1.0  0.81525  0.88709  0.88099  1.0000
  N   N16       1.0  0.75069  0.89418  0.91194  1.0000
  H   H252      1.0  0.78450  0.86999  0.96345  1.0000
  C   C159      1.0  0.76613  0.85677  0.93903  1.0000
  H   H253      1.0  0.79052  0.82848  0.92548  1.0000
  C   C160      1.0  0.79160  0.91345  0.89734  1.0000
  S   S64       1.0  0.78917  0.89805  0.79918  1.0000
  H   H254      1.0  0.78125  0.94313  0.87803  1.0000
  H   H255      1.0  0.81218  0.92584  0.92056  1.0000
  H   H256      1.0  0.83296  0.97373  0.97279  1.0000
