data_image0
_chemical_formula_structural       HC2H2NCHC2H2SHC2HSHCH2FeSHFeS2FeHCHCH2SHC3HSC2H3CHNCFeH2SH2CH2CHCSFe2S4FeC2H2FeC3H4CH2NH3SC3H2CH3CH2C2SHCHCHSH3C4HNH2CHCH3C2HNC2H2CNH4SHCHSFeCHFeHSHS2FeSFeHCHCH2CH5C2H5C3HSFe2SHSHCH3CH2SC4SC2H3CH4SCSHCS2CHFeSCHC2SNHSH2CFeH4C2H2CNCH3FeSCHCHFe2CHS2H4CHFeHSCHCHNHSCH4C3HC3HC2HCHCFeHSH2CHCH3C2HCH2C2HCHC3H7CSHNCH5CH3SFeHFeHC4SHS2NH3CH2CHCH2CH3CH2CH2C2SCFeSHCHCNH2CHCH2CH4CH3SC2HNCHSHFeSHFeCS2CFeSHC2H2C3FeCHSH13SC2H4C3FeC2HC3H2NCSFeHSCHCH3SCHSFeSFeH2NSH6CH3CHSH2SHSH4CHCNH2C2H3C3H
_chemical_formula_sum              "H256 C160 N16 S64 Fe32"
_cell_length_a       26.7754
_cell_length_b       23.1769
_cell_length_c       26.1817
_cell_angle_alpha    90.0644
_cell_angle_beta     90.0287
_cell_angle_gamma    90.6949

_space_group_name_H-M_alt    "P 1"
_space_group_IT_number       1

loop_
  _space_group_symop_operation_xyz
  'x, y, z'

loop_
  _atom_site_type_symbol
  _atom_site_label
  _atom_site_symmetry_multiplicity
  _atom_site_fract_x
  _atom_site_fract_y
  _atom_site_fract_z
  _atom_site_occupancy
  H   H1        1.0  0.19730  0.47859  0.57425  1.0000
  C   C1        1.0  0.29044  0.48275  0.46074  1.0000
  C   C2        1.0  0.25602  0.52705  0.46650  1.0000
  H   H2        1.0  0.20761  0.68704  0.38649  1.0000
  H   H3        1.0  0.19446  0.55870  0.51110  1.0000
  N   N1        1.0  0.20432  0.70117  0.30538  1.0000
  C   C3        1.0  0.22148  0.52473  0.50672  1.0000
  H   H4        1.0  0.24155  0.62067  0.29351  1.0000
  C   C4        1.0  0.20322  0.63862  0.29430  1.0000
  C   C5        1.0  0.25942  0.43687  0.53791  1.0000
  H   H5        1.0  0.12882  0.23211  0.58529  1.0000
  H   H6        1.0  0.18208  0.61421  0.32407  1.0000
  S   S1        1.0  0.25856  0.58737  0.42595  1.0000
  H   H7        1.0  0.18546  0.62940  0.25662  1.0000
  C   C6        1.0  0.22305  0.47947  0.54242  1.0000
  C   C7        1.0  0.29240  0.43803  0.49654  1.0000
  H   H8        1.0  0.26721  0.69716  0.35639  1.0000
  S   S2        1.0  0.26780  0.38486  0.58554  1.0000
  H   H9        1.0  0.12988  0.70173  0.33603  1.0000
  C   C8        1.0  0.22760  0.71123  0.35583  1.0000
  H   H10       1.0  0.13381  0.71571  0.26874  1.0000
  H   H11       1.0  0.27300  0.71697  0.26459  1.0000
  Fe  Fe1       1.0  0.13453  0.28694  0.68626  1.0000
  S   S3        1.0  0.21450  0.30772  0.70268  1.0000
  H   H12       1.0  0.08218  0.45900  0.79951  1.0000
  Fe  Fe2       1.0  0.18470  0.37506  0.75553  1.0000
  S   S4        1.0  0.10510  0.34777  0.74481  1.0000
  S   S5        1.0  0.18244  0.44541  0.69701  1.0000
  Fe  Fe3       1.0  0.10480  0.41208  0.68132  1.0000
  H   H13       1.0  0.16244  0.58393  0.83522  1.0000
  C   C9        1.0  0.10436  0.53606  0.90774  1.0000
  H   H14       1.0  0.25626  0.34209  0.92682  1.0000
  C   C10       1.0  0.07116  0.67021  0.08272  1.0000
  H   H15       1.0  0.13136  0.50573  0.92528  1.0000
  H   H16       1.0  0.19414  0.26279  0.80750  1.0000
  S   S6        1.0  0.21050  0.38735  0.83629  1.0000
  H   H17       1.0  0.17871  0.50943  0.84331  1.0000
  C   C11       1.0  0.06052  0.66225  0.03070  1.0000
  C   C12       1.0  0.26764  0.35274  0.84590  1.0000
  C   C13       1.0  0.06307  0.56679  0.83057  1.0000
  H   H18       1.0  0.07311  0.61271  0.83860  1.0000
  S   S7        1.0  0.06874  0.68963  0.92919  1.0000
  C   C14       1.0  0.28045  0.33331  0.89471  1.0000
  C   C15       1.0  0.14960  0.53876  0.82803  1.0000
  H   H19       1.0  0.19857  0.25090  0.87482  1.0000
  H   H20       1.0  0.11217  0.43571  0.85705  1.0000
  H   H21       1.0  0.05957  0.56167  0.78841  1.0000
  C   C16       1.0  0.08221  0.69888  0.99422  1.0000
  H   H22       1.0  0.29003  0.35738  0.76700  1.0000
  N   N2        1.0  0.10050  0.52717  0.85195  1.0000
  C   C17       1.0  0.08492  0.46698  0.84133  1.0000
  Fe  Fe4       1.0  0.20583  0.37593  0.64256  1.0000
  H   H23       1.0  0.14809  0.53216  0.78593  1.0000
  H   H24       1.0  0.06757  0.52967  0.92686  1.0000
  S   S8        1.0  0.12786  0.34909  0.62117  1.0000
  H   H25       1.0  0.11741  0.58069  0.91701  1.0000
  H   H26       1.0  0.05462  0.64163  0.11084  1.0000
  C   C18       1.0  0.10218  0.71595  0.09835  1.0000
  H   H27       1.0  0.04772  0.45688  0.85830  1.0000
  H   H28       1.0  0.14374  0.22753  0.84034  1.0000
  C   C19       1.0  0.18516  0.23139  0.83835  1.0000
  H   H29       1.0  0.04562  0.12102  0.37567  1.0000
  C   C20       1.0  0.23352  0.73165  0.26555  1.0000
  S   S9        1.0  0.19949  0.86660  0.17908  1.0000
  Fe  Fe5       1.0  0.12456  0.82362  0.17442  1.0000
  Fe  Fe6       1.0  0.16753  0.91267  0.24685  1.0000
  S   S10       1.0  0.20643  0.92049  0.32231  1.0000
  S   S11       1.0  0.11212  0.72881  0.16350  1.0000
  S   S12       1.0  0.13764  0.98719  0.20252  1.0000
  S   S13       1.0  0.09556  0.86304  0.24626  1.0000
  Fe  Fe7       1.0  0.16380  0.93752  0.13419  1.0000
  C   C21       1.0  0.26472  0.88767  0.31631  1.0000
  C   C22       1.0  0.07134  0.19589  0.53698  1.0000
  H   H30       1.0  0.26451  0.85353  0.39276  1.0000
  H   H31       1.0  0.08268  0.09925  0.42903  1.0000
  Fe  Fe8       1.0  0.06807  0.93325  0.19525  1.0000
  C   C23       1.0  0.11021  0.99690  0.39133  1.0000
  C   C24       1.0  0.26157  0.11752  0.13962  1.0000
  C   C25       1.0  0.06184  0.02607  0.31826  1.0000
  H   H32       1.0  0.14579  0.01115  0.37289  1.0000
  H   H33       1.0  0.23450  0.77899  0.27248  1.0000
  H   H34       1.0  0.22700  0.75757  0.36644  1.0000
  H   H35       1.0  0.08559  0.21618  0.50265  1.0000
  C   C26       1.0  0.09547  0.20543  0.58380  1.0000
  H   H36       1.0  0.15246  0.77061  0.31348  1.0000
  H   H37       1.0  0.22412  0.03886  0.16168  1.0000
  N   N3        1.0  0.06769  0.03207  0.37415  1.0000
  H   H38       1.0  0.11162  0.11015  0.36786  1.0000
  H   H39       1.0  0.11562  0.99992  0.43340  1.0000
  H   H40       1.0  0.10470  0.95051  0.38142  1.0000
  S   S14       1.0  0.09118  0.88987  0.12284  1.0000
  C   C27       1.0  0.07740  0.09329  0.38712  1.0000
  C   C28       1.0  0.23649  0.06511  0.13006  1.0000
  C   C29       1.0  0.28336  0.85412  0.35622  1.0000
  H   H41       1.0  0.09567  0.04185  0.29765  1.0000
  H   H42       1.0  0.21710  0.72457  0.22688  1.0000
  C   C30       1.0  0.28992  0.88953  0.26959  1.0000
  H   H43       1.0  0.05570  0.98020  0.30702  1.0000
  H   H44       1.0  0.26794  0.13158  0.17854  1.0000
  H   H45       1.0  0.27677  0.91720  0.23940  1.0000
  C   C31       1.0  0.15279  0.72328  0.30599  1.0000
  H   H46       1.0  0.21017  0.15195  0.90820  1.0000
  H   H47       1.0  0.14780  0.78799  0.07381  1.0000
  C   C32       1.0  0.26329  0.18262  0.82524  1.0000
  C   C33       1.0  0.22967  0.04581  0.07984  1.0000
  S   S15       1.0  0.20271  0.97799  0.06705  1.0000
  H   H48       1.0  0.19799  0.18019  0.74725  1.0000
  C   C34       1.0  0.11421  0.74367  0.00985  1.0000
  H   H49       1.0  0.20596  0.10834  0.77119  1.0000
  C   C35       1.0  0.12355  0.75278  0.06194  1.0000
  H   H50       1.0  0.15515  0.12820  0.87450  1.0000
  S   S16       1.0  0.10309  0.19708  0.68779  1.0000
  H   H51       1.0  0.28616  0.15750  0.01724  1.0000
  H   H52       1.0  0.24225  0.06458  0.00032  1.0000
  H   H53       1.0  0.27382  0.21355  0.79441  1.0000
  C   C36       1.0  0.18936  0.15099  0.77995  1.0000
  C   C37       1.0  0.24747  0.07936  0.03918  1.0000
  C   C38       1.0  0.19624  0.13498  0.87089  1.0000
  C   C39       1.0  0.27271  0.13159  0.04874  1.0000
  H   H54       1.0  0.28222  0.14117  0.81701  1.0000
  N   N4        1.0  0.20851  0.17496  0.82862  1.0000
  H   H55       1.0  0.14800  0.14512  0.78080  1.0000
  H   H56       1.0  0.13096  0.77211  0.98174  1.0000
  C   C40       1.0  0.07673  0.18004  0.62840  1.0000
  H   H57       1.0  0.21336  0.09195  0.86488  1.0000
  C   C41       1.0  0.28052  0.15023  0.09898  1.0000
  H   H58       1.0  0.27911  0.19976  0.86160  1.0000
  H   H59       1.0  0.43559  0.53628  0.53158  1.0000
  H   H60       1.0  0.42615  0.36685  0.25392  1.0000
  C   C42       1.0  0.39230  0.36838  0.22921  1.0000
  C   C43       1.0  0.42965  0.30779  0.16531  1.0000
  H   H61       1.0  0.37646  0.49939  0.52941  1.0000
  N   N5        1.0  0.40562  0.36380  0.17462  1.0000
  C   C44       1.0  0.40330  0.52187  0.55529  1.0000
  C   C45       1.0  0.52809  0.70744  0.56146  1.0000
  H   H62       1.0  0.33295  0.33217  0.15225  1.0000
  H   H63       1.0  0.44945  0.61645  0.59227  1.0000
  C   C46       1.0  0.52091  0.56482  0.24604  1.0000
  N   N6        1.0  0.37971  0.57106  0.58150  1.0000
  H   H64       1.0  0.41708  0.48939  0.58303  1.0000
  H   H65       1.0  0.46459  0.30341  0.18799  1.0000
  H   H66       1.0  0.31997  0.40455  0.49248  1.0000
  H   H67       1.0  0.54140  0.67123  0.58343  1.0000
  S   S17       1.0  0.49697  0.62793  0.49075  1.0000
  H   H68       1.0  0.37351  0.40994  0.23755  1.0000
  C   C47       1.0  0.50760  0.50766  0.25689  1.0000
  H   H69       1.0  0.49278  0.59787  0.24578  1.0000
  S   S18       1.0  0.35132  0.61394  0.31128  1.0000
  Fe  Fe9       1.0  0.33594  0.60320  0.39490  1.0000
  C   C48       1.0  0.36132  0.61241  0.54310  1.0000
  H   H70       1.0  0.36663  0.33277  0.24112  1.0000
  Fe  Fe10      1.0  0.42062  0.56395  0.32713  1.0000
  H   H71       1.0  0.40425  0.27092  0.17478  1.0000
  S   S19       1.0  0.46853  0.64141  0.34462  1.0000
  H   H72       1.0  0.47626  0.40812  0.18245  1.0000
  S   S20       1.0  0.37606  0.68456  0.41822  1.0000
  S   S21       1.0  0.40162  0.54632  0.40892  1.0000
  Fe  Fe11      1.0  0.44333  0.62828  0.42503  1.0000
  S   S22       1.0  0.44732  0.49092  0.27840  1.0000
  Fe  Fe12      1.0  0.39743  0.69063  0.33559  1.0000
  H   H73       1.0  0.53351  0.42018  0.26253  1.0000
  C   C49       1.0  0.50556  0.69830  0.51384  1.0000
  H   H74       1.0  0.39255  0.63013  0.51969  1.0000
  C   C50       1.0  0.44066  0.41102  0.16070  1.0000
  H   H75       1.0  0.42464  0.45414  0.16894  1.0000
  H   H76       1.0  0.34075  0.40942  0.14928  1.0000
  C   C51       1.0  0.35994  0.36768  0.14313  1.0000
  H   H77       1.0  0.30851  0.52823  0.58848  1.0000
  H   H78       1.0  0.31542  0.48261  0.42847  1.0000
  H   H79       1.0  0.33405  0.59166  0.51649  1.0000
  H   H80       1.0  0.34246  0.64964  0.56134  1.0000
  H   H81       1.0  0.53967  0.55764  0.40733  1.0000
  C   C52       1.0  0.33737  0.54973  0.61270  1.0000
  C   C53       1.0  0.41688  0.60021  0.61477  1.0000
  H   H82       1.0  0.44017  0.30345  0.12454  1.0000
  H   H83       1.0  0.45067  0.40950  0.11942  1.0000
  H   H84       1.0  0.36635  0.29974  0.77946  1.0000
  H   H85       1.0  0.33243  0.28421  0.93924  1.0000
  H   H86       1.0  0.40059  0.63808  0.63463  1.0000
  C   C54       1.0  0.32376  0.30081  0.90182  1.0000
  C   C55       1.0  0.35470  0.28840  0.86025  1.0000
  C   C56       1.0  0.34241  0.30896  0.81167  1.0000
  H   H87       1.0  0.34958  0.51738  0.64138  1.0000
  S   S23       1.0  0.40949  0.28753  0.01495  1.0000
  Fe  Fe13      1.0  0.48526  0.26164  0.04207  1.0000
  Fe  Fe14      1.0  0.42351  0.22677  0.95020  1.0000
  S   S24       1.0  0.52959  0.33621  0.07319  1.0000
  H   H88       1.0  0.31887  0.58550  0.63346  1.0000
  S   S25       1.0  0.40691  0.24424  0.86771  1.0000
  H   H89       1.0  0.43147  0.57043  0.64439  1.0000
  C   C57       1.0  0.29896  0.34113  0.80452  1.0000
  H   H90       1.0  0.36874  0.36419  0.10170  1.0000
  H   H91       1.0  0.48070  0.83763  0.48290  1.0000
  H   H92       1.0  0.35048  0.85524  0.22507  1.0000
  C   C58       1.0  0.51537  0.81049  0.55301  1.0000
  H   H93       1.0  0.47230  0.73863  0.44814  1.0000
  H   H94       1.0  0.33809  0.79142  0.37832  1.0000
  S   S26       1.0  0.39658  0.77019  0.28686  1.0000
  C   C59       1.0  0.33176  0.85497  0.26164  1.0000
  C   C60       1.0  0.34820  0.81810  0.30024  1.0000
  C   C61       1.0  0.32465  0.81854  0.34792  1.0000
  C   C62       1.0  0.48890  0.74528  0.48535  1.0000
  S   S27       1.0  0.51991  0.88070  0.57749  1.0000
  C   C63       1.0  0.49396  0.80137  0.50487  1.0000
  C   C64       1.0  0.53281  0.76356  0.58116  1.0000
  H   H95       1.0  0.32864  0.89665  0.13622  1.0000
  H   H96       1.0  0.35223  0.95697  0.17263  1.0000
  H   H97       1.0  0.39528  0.03846  0.12859  1.0000
  C   C65       1.0  0.33537  0.94412  0.13537  1.0000
  H   H98       1.0  0.29813  0.96476  0.13275  1.0000
  H   H99       1.0  0.43578  0.94326  0.13237  1.0000
  H   H100      1.0  0.49280  0.14952  0.74500  1.0000
  H   H101      1.0  0.40825  0.04051  0.96135  1.0000
  S   S28       1.0  0.49976  0.04622  0.02003  1.0000
  C   C66       1.0  0.45603  0.94353  0.87817  1.0000
  S   S29       1.0  0.50211  0.20743  0.97344  1.0000
  H   H102      1.0  0.36705  0.95482  0.01004  1.0000
  C   C67       1.0  0.48160  0.00433  0.96727  1.0000
  S   S30       1.0  0.38930  0.15050  0.98970  1.0000
  S   S31       1.0  0.44199  0.91288  0.81865  1.0000
  C   C68       1.0  0.37616  0.02423  0.09291  1.0000
  H   H103      1.0  0.38582  0.98744  0.88277  1.0000
  Fe  Fe15      1.0  0.50969  0.89709  0.77030  1.0000
  S   S32       1.0  0.52408  0.95861  0.70610  1.0000
  C   C69       1.0  0.34312  0.94437  0.04354  1.0000
  H   H104      1.0  0.30717  0.96728  0.03835  1.0000
  C   C70       1.0  0.51219  0.11035  0.75895  1.0000
  C   C71       1.0  0.42177  0.98081  0.90062  1.0000
  S   S33       1.0  0.51956  0.81872  0.72125  1.0000
  N   N7        1.0  0.51272  0.10797  0.81534  1.0000
  H   H105      1.0  0.39973  0.03863  0.06028  1.0000
  S   S34       1.0  0.45784  0.18733  0.08946  1.0000
  H   H106      1.0  0.33456  0.89729  0.04228  1.0000
  H   H107      1.0  0.43778  0.13964  0.82057  1.0000
  C   C72       1.0  0.43476  0.01157  0.94478  1.0000
  Fe  Fe16      1.0  0.46684  0.13503  0.01814  1.0000
  H   H108      1.0  0.34042  0.04782  0.09044  1.0000
  H   H109      1.0  0.44258  0.06242  0.82158  1.0000
  H   H110      1.0  0.45976  0.10432  0.87695  1.0000
  H   H111      1.0  0.49247  0.07211  0.74249  1.0000
  C   C73       1.0  0.46092  0.10332  0.83445  1.0000
  C   C74       1.0  0.41625  0.93169  0.09616  1.0000
  H   H112      1.0  0.44166  0.94412  0.06417  1.0000
  H   H113      1.0  0.52452  0.01642  0.81693  1.0000
  C   C75       1.0  0.50189  0.93388  0.90211  1.0000
  N   N8        1.0  0.36772  0.96109  0.09202  1.0000
  C   C76       1.0  0.51455  0.96399  0.94689  1.0000
  H   H114      1.0  0.41147  0.88393  0.09525  1.0000
  H   H115      1.0  0.52751  0.90315  0.88626  1.0000
  H   H116      1.0  0.51441  0.20003  0.82626  1.0000
  Fe  Fe17      1.0  0.38304  0.20932  0.05718  1.0000
  S   S35       1.0  0.31833  0.21087  0.11119  1.0000
  C   C77       1.0  0.54114  0.05717  0.83226  1.0000
  H   H117      1.0  0.54156  0.05362  0.87466  1.0000
  C   C78       1.0  0.53657  0.16104  0.83573  1.0000
  H   H118      1.0  0.53984  0.15925  0.87803  1.0000
  Fe  Fe18      1.0  0.54249  0.88086  0.65982  1.0000
  Fe  Fe19      1.0  0.72357  0.48650  0.25132  1.0000
  C   C79       1.0  0.66930  0.29355  0.16426  1.0000
  H   H119      1.0  0.61364  0.61098  0.32962  1.0000
  S   S36       1.0  0.70546  0.40560  0.29499  1.0000
  S   S37       1.0  0.72466  0.27946  0.19769  1.0000
  H   H120      1.0  0.65328  0.51513  0.33630  1.0000
  H   H121      1.0  0.62143  0.44622  0.24380  1.0000
  H   H122      1.0  0.69688  0.54582  0.38080  1.0000
  H   H123      1.0  0.70616  0.33648  0.39229  1.0000
  C   C80       1.0  0.65023  0.34940  0.16414  1.0000
  H   H124      1.0  0.74733  0.24362  0.30596  1.0000
  Fe  Fe20      1.0  0.75056  0.36207  0.23436  1.0000
  H   H125      1.0  0.59291  0.40537  0.13602  1.0000
  S   S38       1.0  0.76281  0.44168  0.18749  1.0000
  C   C81       1.0  0.73249  0.31099  0.41361  1.0000
  H   H126      1.0  0.66860  0.38331  0.18544  1.0000
  C   C82       1.0  0.59366  0.47940  0.24467  1.0000
  H   H127      1.0  0.59937  0.59929  0.47022  1.0000
  N   N9        1.0  0.61951  0.56098  0.39840  1.0000
  H   H128      1.0  0.62763  0.52966  0.47519  1.0000
  S   S39       1.0  0.67055  0.55800  0.23376  1.0000
  C   C83       1.0  0.72182  0.25279  0.42383  1.0000
  H   H129      1.0  0.66533  0.59208  0.46027  1.0000
  H   H130      1.0  0.68740  0.23347  0.40996  1.0000
  H   H131      1.0  0.58890  0.64515  0.38562  1.0000
  H   H132      1.0  0.58121  0.62417  0.22931  1.0000
  C   C84       1.0  0.60750  0.53714  0.23703  1.0000
  C   C85       1.0  0.57083  0.57956  0.23608  1.0000
  C   C86       1.0  0.61936  0.61697  0.37140  1.0000
  H   H133      1.0  0.66156  0.48224  0.39763  1.0000
  C   C87       1.0  0.65955  0.52444  0.37749  1.0000
  C   C88       1.0  0.60716  0.36184  0.13623  1.0000
  C   C89       1.0  0.62839  0.57091  0.45346  1.0000
  H   H134      1.0  0.65543  0.64068  0.37635  1.0000
  C   C90       1.0  0.77687  0.33623  0.43151  1.0000
  C   C91       1.0  0.57064  0.53170  0.39121  1.0000
  H   H135      1.0  0.56955  0.48873  0.41006  1.0000
  C   C92       1.0  0.54369  0.46459  0.25459  1.0000
  H   H136      1.0  0.56230  0.52488  0.35000  1.0000
  C   C93       1.0  0.64443  0.24964  0.13715  1.0000
  Fe  Fe21      1.0  0.77924  0.42125  0.33301  1.0000
  H   H137      1.0  0.79212  0.63330  0.13136  1.0000
  S   S40       1.0  0.79163  0.40800  0.41668  1.0000
  H   H138      1.0  0.72046  0.66782  0.78252  1.0000
  H   H139      1.0  0.65619  0.67793  0.92381  1.0000
  C   C94       1.0  0.60079  0.26197  0.10951  1.0000
  H   H140      1.0  0.76508  0.40184  0.07645  1.0000
  C   C95       1.0  0.77895  0.40335  0.03633  1.0000
  H   H141      1.0  0.58176  0.22820  0.08826  1.0000
  H   H142      1.0  0.71447  0.67955  0.88964  1.0000
  H   H143      1.0  0.78063  0.50816  0.08202  1.0000
  C   C96       1.0  0.73524  0.71148  0.78397  1.0000
  C   C97       1.0  0.58254  0.31832  0.10872  1.0000
  H   H144      1.0  0.74581  0.40875  0.01115  1.0000
  C   C98       1.0  0.78565  0.72128  0.79573  1.0000
  H   H145      1.0  0.75815  0.68812  0.97341  1.0000
  H   H146      1.0  0.69978  0.68985  0.00705  1.0000
  C   C99       1.0  0.72792  0.71707  0.98673  1.0000
  C   C100      1.0  0.68471  0.70700  0.90620  1.0000
  H   H147      1.0  0.75917  0.51404  0.01723  1.0000
  C   C101      1.0  0.79267  0.50635  0.04130  1.0000
  H   H148      1.0  0.59689  0.93165  0.51446  1.0000
  C   C102      1.0  0.75640  0.21918  0.45017  1.0000
  C   C103      1.0  0.61009  0.01196  0.58747  1.0000
  C   C104      1.0  0.61817  0.97122  0.50307  1.0000
  H   H149      1.0  0.73516  0.17838  0.34118  1.0000
  H   H150      1.0  0.64794  0.08249  0.51604  1.0000
  H   H151      1.0  0.66172  0.91281  0.57801  1.0000
  H   H152      1.0  0.59067  0.00214  0.48734  1.0000
  H   H153      1.0  0.64391  0.95894  0.47163  1.0000
  H   H154      1.0  0.78265  0.09415  0.26899  1.0000
  H   H155      1.0  0.70151  0.97011  0.60111  1.0000
  C   C105      1.0  0.68131  0.95349  0.56680  1.0000
  S   S41       1.0  0.74596  0.14457  0.45574  1.0000
  H   H156      1.0  0.69973  0.03865  0.49848  1.0000
  N   N10       1.0  0.64578  0.99632  0.54687  1.0000
  C   C106      1.0  0.67350  0.04850  0.53016  1.0000
  H   H157      1.0  0.70984  0.94213  0.53771  1.0000
  H   H158      1.0  0.69601  0.06761  0.56185  1.0000
  H   H159      1.0  0.58206  0.04331  0.57359  1.0000
  H   H160      1.0  0.72629  0.18004  0.27319  1.0000
  H   H161      1.0  0.58913  0.97343  0.60157  1.0000
  C   C107      1.0  0.75071  0.19574  0.30485  1.0000
  H   H162      1.0  0.65898  0.20630  0.13727  1.0000
  H   H163      1.0  0.79236  0.09761  0.33684  1.0000
  H   H164      1.0  0.64720  0.81021  0.93093  1.0000
  S   S42       1.0  0.62361  0.88230  0.68002  1.0000
  Fe  Fe22      1.0  0.60347  0.95579  0.73133  1.0000
  H   H165      1.0  0.71154  0.95007  0.74775  1.0000
  Fe  Fe23      1.0  0.59973  0.82638  0.74563  1.0000
  H   H166      1.0  0.69852  0.85034  0.76903  1.0000
  C   C108      1.0  0.72294  0.81438  0.77586  1.0000
  C   C109      1.0  0.77281  0.05769  0.65253  1.0000
  C   C110      1.0  0.70373  0.75806  0.77491  1.0000
  C   C111      1.0  0.77656  0.96979  0.70226  1.0000
  S   S43       1.0  0.63980  0.74552  0.76670  1.0000
  H   H167      1.0  0.76060  0.81705  0.94575  1.0000
  S   S44       1.0  0.58842  0.90038  0.79972  1.0000
  S   S45       1.0  0.64277  0.04143  0.72930  1.0000
  N   N11       1.0  0.70539  0.74870  0.94364  1.0000
  H   H168      1.0  0.72832  0.80933  0.88593  1.0000
  H   H169      1.0  0.57493  0.16726  0.82009  1.0000
  H   H170      1.0  0.62953  0.03175  0.62081  1.0000
  C   C112      1.0  0.70342  0.03005  0.70719  1.0000
  H   H171      1.0  0.70605  0.10778  0.66215  1.0000
  H   H172      1.0  0.78969  0.08759  0.62579  1.0000
  C   C113      1.0  0.72867  0.98018  0.72137  1.0000
  H   H173      1.0  0.58066  0.05947  0.81913  1.0000
  C   C114      1.0  0.72565  0.06920  0.67321  1.0000
  H   H174      1.0  0.78791  0.86793  0.78989  1.0000
  H   H175      1.0  0.55082  0.11109  0.74310  1.0000
  C   C115      1.0  0.66485  0.78574  0.96270  1.0000
  H   H176      1.0  0.67905  0.81776  0.99110  1.0000
  H   H177      1.0  0.74500  0.74704  0.01527  1.0000
  H   H178      1.0  0.63484  0.75972  0.98147  1.0000
  C   C116      1.0  0.77342  0.82422  0.78757  1.0000
  H   H179      1.0  0.77523  0.75858  0.90376  1.0000
  H   H180      1.0  0.55046  0.95735  0.96478  1.0000
  C   C117      1.0  0.74404  0.78503  0.91874  1.0000
  H   H181      1.0  0.66621  0.72943  0.87383  1.0000
  H   H182      1.0  0.54999  0.77048  0.61809  1.0000
  C   C118      1.0  0.92333  0.56445  0.12424  1.0000
  C   C119      1.0  0.88845  0.54435  0.15994  1.0000
  S   S46       1.0  0.82327  0.37017  0.27629  1.0000
  C   C120      1.0  0.80071  0.24454  0.46824  1.0000
  Fe  Fe24      1.0  0.83128  0.45450  0.23523  1.0000
  S   S47       1.0  0.90181  0.48379  0.19702  1.0000
  H   H183      1.0  0.95344  0.41909  0.61628  1.0000
  C   C121      1.0  0.00717  0.35240  0.55366  1.0000
  H   H184      1.0  0.90988  0.70464  0.16456  1.0000
  C   C122      1.0  0.84161  0.57021  0.16322  1.0000
  N   N12       1.0  0.96633  0.33339  0.58795  1.0000
  H   H185      1.0  0.03360  0.31668  0.54584  1.0000
  H   H186      1.0  0.92132  0.29964  0.52639  1.0000
  C   C123      1.0  0.93286  0.38239  0.59804  1.0000
  H   H187      1.0  0.84502  0.32276  0.47303  1.0000
  C   C124      1.0  0.93767  0.28593  0.56347  1.0000
  H   H188      1.0  0.81478  0.55567  0.19134  1.0000
  H   H189      1.0  0.91593  0.39885  0.56211  1.0000
  C   C125      1.0  0.81058  0.30326  0.45956  1.0000
  H   H190      1.0  0.99251  0.36749  0.51626  1.0000
  H   H191      1.0  0.95985  0.54503  0.12210  1.0000
  H   H192      1.0  0.90651  0.27043  0.58822  1.0000
  H   H193      1.0  0.02912  0.38878  0.57078  1.0000
  C   C126      1.0  0.82885  0.61439  0.12938  1.0000
  H   H194      1.0  0.96182  0.24829  0.55540  1.0000
  H   H195      1.0  0.83115  0.25134  0.33992  1.0000
  H   H196      1.0  0.81991  0.24671  0.24489  1.0000
  S   S48       1.0  0.79339  0.50663  0.29549  1.0000
  C   C127      1.0  0.93380  0.48918  0.80142  1.0000
  C   C128      1.0  0.98982  0.43042  0.75101  1.0000
  H   H197      1.0  0.95815  0.29850  0.66370  1.0000
  N   N13       1.0  0.81596  0.45053  0.02903  1.0000
  C   C129      1.0  0.98777  0.31296  0.63664  1.0000
  H   H198      1.0  0.97702  0.56320  0.69788  1.0000
  S   S49       1.0  0.84406  0.68184  0.04560  1.0000
  H   H199      1.0  0.93729  0.62314  0.06235  1.0000
  Fe  Fe25      1.0  0.88719  0.66962  0.97324  1.0000
  S   S50       1.0  0.94553  0.60310  0.95849  1.0000
  H   H200      1.0  0.95236  0.40139  0.81946  1.0000
  Fe  Fe26      1.0  0.90760  0.59120  0.88313  1.0000
  C   C130      1.0  0.95772  0.43670  0.79294  1.0000
  S   S51       1.0  0.95390  0.65823  0.84245  1.0000
  S   S52       1.0  0.89888  0.49943  0.85726  1.0000
  C   C131      1.0  0.85908  0.44143  0.06325  1.0000
  Fe  Fe27      1.0  0.89424  0.71897  0.86726  1.0000
  S   S53       1.0  0.84465  0.65058  0.90152  1.0000
  H   H201      1.0  0.90183  0.36982  0.62419  1.0000
  C   C132      1.0  0.83323  0.45118  0.97535  1.0000
  C   C133      1.0  0.97182  0.52786  0.72441  1.0000
  H   H202      1.0  0.91985  0.57393  0.77154  1.0000
  H   H203      1.0  0.97171  0.71495  0.09352  1.0000
  C   C134      1.0  0.91030  0.60807  0.08993  1.0000
  C   C135      1.0  0.94000  0.53426  0.76647  1.0000
  C   C136      1.0  0.86265  0.63202  0.09170  1.0000
  Fe  Fe28      1.0  0.98672  0.67505  0.91962  1.0000
  C   C137      1.0  0.99787  0.47652  0.71741  1.0000
  H   H204      1.0  0.00809  0.38987  0.74483  1.0000
  S   S54       1.0  0.04078  0.47157  0.66701  1.0000
  H   H205      1.0  0.86135  0.48622  0.96859  1.0000
  H   H206      1.0  0.80991  0.68516  0.80241  1.0000
  H   H207      1.0  0.01316  0.27595  0.63046  1.0000
  H   H208      1.0  0.81920  0.54295  0.03488  1.0000
  H   H209      1.0  0.87753  0.39959  0.05546  1.0000
  H   H210      1.0  0.00997  0.34766  0.65579  1.0000
  H   H211      1.0  0.84759  0.44125  0.10415  1.0000
  H   H212      1.0  0.88778  0.47618  0.05875  1.0000
  H   H213      1.0  0.85109  0.40981  0.96454  1.0000
  H   H214      1.0  0.02543  0.55844  0.84728  1.0000
  H   H215      1.0  0.80185  0.45838  0.94827  1.0000
  H   H216      1.0  0.03627  0.62717  0.01883  1.0000
  H   H217      1.0  0.79528  0.36049  0.02772  1.0000
  S   S55       1.0  0.88460  0.91200  0.40808  1.0000
  C   C138      1.0  0.94487  0.88860  0.32713  1.0000
  C   C139      1.0  0.96949  0.90258  0.28157  1.0000
  H   H218      1.0  0.99512  0.87251  0.26511  1.0000
  H   H219      1.0  0.97696  0.10785  0.57788  1.0000
  H   H220      1.0  0.95233  0.84814  0.34613  1.0000
  H   H221      1.0  0.84500  0.09971  0.29428  1.0000
  C   C140      1.0  0.90319  0.75176  0.16064  1.0000
  C   C141      1.0  0.91157  0.92756  0.34887  1.0000
  C   C142      1.0  0.96038  0.95510  0.25737  1.0000
  Fe  Fe29      1.0  0.81474  0.09799  0.48056  1.0000
  C   C143      1.0  0.01024  0.13465  0.57922  1.0000
  C   C144      1.0  0.80597  0.11455  0.29942  1.0000
  H   H222      1.0  0.98855  0.03741  0.38733  1.0000
  C   C145      1.0  0.82119  0.19884  0.24732  1.0000
  C   C146      1.0  0.02840  0.16105  0.53481  1.0000
  C   C147      1.0  0.98938  0.77193  0.18102  1.0000
  H   H223      1.0  0.82331  0.18657  0.37642  1.0000
  H   H224      1.0  0.87466  0.19323  0.33299  1.0000
  N   N14       1.0  0.80312  0.17817  0.29747  1.0000
  C   C148      1.0  0.83453  0.20347  0.33840  1.0000
  S   S56       1.0  0.87625  0.08249  0.42447  1.0000
  Fe  Fe30      1.0  0.92667  0.10092  0.49064  1.0000
  H   H225      1.0  0.91803  0.03341  0.25893  1.0000
  S   S57       1.0  0.99575  0.15367  0.47725  1.0000
  C   C149      1.0  0.93914  0.84538  0.14166  1.0000
  H   H226      1.0  0.94204  0.83306  0.60223  1.0000
  C   C150      1.0  0.92562  0.99311  0.27806  1.0000
  H   H227      1.0  0.02370  0.79687  0.17100  1.0000
  H   H228      1.0  0.88990  0.76761  0.19835  1.0000
  H   H229      1.0  0.87424  0.00841  0.33967  1.0000
  S   S58       1.0  0.93089  0.00908  0.51605  1.0000
  C   C151      1.0  0.90141  0.97944  0.32398  1.0000
  H   H230      1.0  0.86036  0.18569  0.24004  1.0000
  S   S59       1.0  0.99305  0.97467  0.20211  1.0000
  Fe  Fe31      1.0  0.87477  0.99207  0.45451  1.0000
  S   S60       1.0  0.86543  0.12493  0.54483  1.0000
  Fe  Fe32      1.0  0.86460  0.03074  0.56397  1.0000
  H   H231      1.0  0.01311  0.96589  0.39142  1.0000
  H   H232      1.0  0.99969  0.72549  0.18170  1.0000
  N   N15       1.0  0.94892  0.78279  0.14405  1.0000
  S   S61       1.0  0.80841  0.00544  0.50463  1.0000
  H   H233      1.0  0.97841  0.78429  0.22044  1.0000
  H   H234      1.0  0.82776  0.21890  0.48818  1.0000
  H   H235      1.0  0.79752  0.18179  0.21557  1.0000
  H   H236      1.0  0.92797  0.86274  0.17959  1.0000
  H   H237      1.0  0.02430  0.01709  0.44209  1.0000
  H   H238      1.0  0.02940  0.05088  0.30383  1.0000
  C   C152      1.0  0.02145  0.01212  0.39987  1.0000
  H   H239      1.0  0.87222  0.75714  0.13272  1.0000
  H   H240      1.0  0.97295  0.87021  0.12940  1.0000
  H   H241      1.0  0.85033  0.87239  0.65981  1.0000
  C   C153      1.0  0.86973  0.83296  0.67301  1.0000
  H   H242      1.0  0.91276  0.87459  0.75846  1.0000
  S   S62       1.0  0.86586  0.79072  0.81847  1.0000
  H   H243      1.0  0.93437  0.76913  0.06401  1.0000
  H   H244      1.0  0.97013  0.89814  0.72939  1.0000
  S   S63       1.0  0.93170  0.74290  0.94084  1.0000
  H   H245      1.0  0.99886  0.78411  0.07954  1.0000
  S   S64       1.0  0.85721  0.99316  0.64194  1.0000
  H   H246      1.0  0.86341  0.79893  0.64365  1.0000
  H   H247      1.0  0.91203  0.92979  0.71110  1.0000
  H   H248      1.0  0.01990  0.12436  0.66044  1.0000
  H   H249      1.0  0.98841  0.79735  0.70523  1.0000
  C   C154      1.0  0.93002  0.88857  0.72183  1.0000
  H   H250      1.0  0.79624  0.93159  0.71395  1.0000
  C   C155      1.0  0.80444  0.77769  0.79860  1.0000
  N   N16       1.0  0.92355  0.84427  0.68157  1.0000
  H   H251      1.0  0.93099  0.77339  0.73378  1.0000
  H   H252      1.0  0.98722  0.87416  0.63858  1.0000
  C   C156      1.0  0.94786  0.79036  0.69784  1.0000
  C   C157      1.0  0.96409  0.76198  0.09301  1.0000
  H   H253      1.0  0.85092  0.81850  0.70868  1.0000
  H   H254      1.0  0.90874  0.85510  0.11411  1.0000
  H   H255      1.0  0.94386  0.75595  0.66840  1.0000
  C   C158      1.0  0.94661  0.86513  0.63361  1.0000
  C   C159      1.0  0.79842  0.00820  0.66744  1.0000
  C   C160      1.0  0.03460  0.14388  0.62596  1.0000
  H   H256      1.0  0.92913  0.90592  0.62049  1.0000
