data_image0
_chemical_formula_structural       FeHSCH2SFeC2H3NCHCSHCH4FeCHCSH3CHC4HC2H2CSHSC2HSFe2CH6SHCNHCH3C2SH3C2H3CS2FeSC2SHCHFeH3SCNC2SHCH2CH5FeHNCHCSCH2CHCSHCH2C2H4CH2NSC2H2CH3C2H3SFeHSCH4C4H2C2HNHSH2C2HSCH2CH4CH4CH2CSHCHSCHFeC2HNH3CS2FeH2CFeSCH2CHC2S2H3SNFeCH2CFeHFeH3CHCSFeSCSFe2H3CH4NHCH3FeSCNHC2HC2H3SHCH2C2HCHCHSHSC2HCH9SCHC2HCFeHC2SHSCHCH2
_chemical_formula_sum              "Fe20 H160 S40 C100 N10"
_cell_length_a       26.622
_cell_length_b       28.6364
_cell_length_c       27.0243
_cell_angle_alpha    88.5852
_cell_angle_beta     85.6792
_cell_angle_gamma    100.524

_space_group_name_H-M_alt    "P 1"
_space_group_IT_number       1

loop_
  _space_group_symop_operation_xyz
  'x, y, z'

loop_
  _atom_site_type_symbol
  _atom_site_label
  _atom_site_symmetry_multiplicity
  _atom_site_fract_x
  _atom_site_fract_y
  _atom_site_fract_z
  _atom_site_occupancy
  Fe  Fe1       1.0  0.23913  0.02132  0.06403  1.0000
  H   H1        1.0  0.17904  0.10593  0.07823  1.0000
  S   S1        1.0  0.15690  0.01989  0.23514  1.0000
  C   C1        1.0  0.16255  0.11612  0.04513  1.0000
  H   H2        1.0  0.12094  0.16466  0.08260  1.0000
  H   H3        1.0  0.09855  0.03820  0.32329  1.0000
  S   S2        1.0  0.04176  0.00916  0.51380  1.0000
  Fe  Fe2       1.0  0.20900  0.99708  0.17401  1.0000
  C   C2        1.0  0.12964  0.14939  0.04748  1.0000
  C   C3        1.0  0.11310  0.00598  0.33037  1.0000
  H   H4        1.0  0.03617  0.10328  0.10637  1.0000
  H   H5        1.0  0.24597  0.05743  0.29547  1.0000
  H   H6        1.0  0.03779  0.17108  0.51258  1.0000
  N   N1        1.0  0.31093  0.02600  0.31146  1.0000
  C   C4        1.0  0.35568  0.01212  0.28392  1.0000
  H   H7        1.0  0.26482  0.01925  0.24930  1.0000
  C   C5        1.0  0.27989  0.04596  0.27615  1.0000
  S   S3        1.0  0.26812  0.05401  0.13350  1.0000
  H   H8        1.0  0.38060  0.04320  0.26354  1.0000
  C   C6        1.0  0.45368  0.99620  0.15243  1.0000
  H   H9        1.0  0.29557  0.07311  0.36896  1.0000
  H   H10       1.0  0.49822  0.04411  0.19981  1.0000
  H   H11       1.0  0.35247  0.04848  0.37450  1.0000
  H   H12       1.0  0.24440  0.99261  0.35823  1.0000
  Fe  Fe3       1.0  0.32032  0.99994  0.13307  1.0000
  C   C7        1.0  0.49791  0.01385  0.17659  1.0000
  H   H13       1.0  0.35213  0.09470  0.32831  1.0000
  C   C8        1.0  0.32862  0.06221  0.34745  1.0000
  S   S4        1.0  0.40024  0.02541  0.15947  1.0000
  H   H14       1.0  0.30267  0.07704  0.25404  1.0000
  H   H15       1.0  0.37969  0.99611  0.30905  1.0000
  H   H16       1.0  0.08069  0.99732  0.40641  1.0000
  C   C9        1.0  0.14223  0.98788  0.29257  1.0000
  H   H17       1.0  0.34363  0.98555  0.25561  1.0000
  C   C10       1.0  0.27943  0.98376  0.33822  1.0000
  C   C11       1.0  0.10294  0.98288  0.37751  1.0000
  C   C12       1.0  0.01734  0.13498  0.52566  1.0000
  C   C13       1.0  0.17544  0.09733  0.99964  1.0000
  H   H18       1.0  0.09732  0.10129  0.72232  1.0000
  C   C14       1.0  0.15400  0.11106  0.95686  1.0000
  C   C15       1.0  0.05586  0.09499  0.72460  1.0000
  H   H19       1.0  0.16392  0.09669  0.92155  1.0000
  H   H20       1.0  0.10392  0.15392  0.92622  1.0000
  C   C16       1.0  0.12011  0.14353  0.95941  1.0000
  S   S5        1.0  0.06388  0.02883  0.65409  1.0000
  H   H21       1.0  0.04998  0.15044  0.77667  1.0000
  S   S6        1.0  0.21933  0.05795  0.99470  1.0000
  C   C17       1.0  0.10835  0.16321  0.00470  1.0000
  C   C18       1.0  0.02920  0.06001  0.69581  1.0000
  H   H22       1.0  0.04192  0.13435  0.62012  1.0000
  S   S7        1.0  0.06707  0.20492  0.00974  1.0000
  Fe  Fe4       1.0  0.01937  0.22146  0.94778  1.0000
  Fe  Fe5       1.0  0.02534  0.98476  0.59418  1.0000
  C   C19       1.0  0.02919  0.12287  0.75539  1.0000
  H   H23       1.0  0.03583  0.06904  0.02352  1.0000
  H   H24       1.0  0.03377  0.19322  0.60248  1.0000
  H   H25       1.0  0.04693  0.11326  0.53285  1.0000
  H   H26       1.0  0.14893  0.33588  0.03674  1.0000
  H   H27       1.0  0.16868  0.39947  0.03591  1.0000
  H   H28       1.0  0.09944  0.33254  0.91205  1.0000
  S   S8        1.0  0.03809  0.38089  0.85441  1.0000
  H   H29       1.0  0.12612  0.41946  0.91002  1.0000
  C   C20       1.0  0.04532  0.47746  0.86289  1.0000
  N   N2        1.0  0.12983  0.37276  0.97262  1.0000
  H   H30       1.0  0.16222  0.32441  0.92545  1.0000
  C   C21       1.0  0.15141  0.41517  0.94025  1.0000
  H   H31       1.0  0.18972  0.41260  0.92223  1.0000
  H   H32       1.0  0.20304  0.36427  0.99632  1.0000
  H   H33       1.0  0.10739  0.29730  0.96563  1.0000
  C   C22       1.0  0.12456  0.32990  0.94266  1.0000
  C   C23       1.0  0.02027  0.43207  0.88117  1.0000
  S   S9        1.0  0.04444  0.24362  0.86779  1.0000
  H   H34       1.0  0.15551  0.44830  0.96147  1.0000
  H   H35       1.0  0.05191  0.38067  0.96648  1.0000
  H   H36       1.0  0.06159  0.34665  0.02042  1.0000
  C   C24       1.0  0.16421  0.36800  0.01217  1.0000
  C   C25       1.0  0.07895  0.37783  0.99537  1.0000
  H   H37       1.0  0.08115  0.41031  0.01748  1.0000
  H   H38       1.0  0.07441  0.48057  0.83216  1.0000
  H   H39       1.0  0.05390  0.55357  0.87080  1.0000
  C   C26       1.0  0.03357  0.51892  0.88453  1.0000
  S   S10       1.0  0.01852  0.68033  0.85553  1.0000
  S   S11       1.0  0.26251  0.94526  0.17874  1.0000
  Fe  Fe6       1.0  0.23495  0.92161  0.10504  1.0000
  S   S12       1.0  0.21099  0.84418  0.08983  1.0000
  C   C27       1.0  0.16040  0.94594  0.30183  1.0000
  C   C28       1.0  0.15095  0.92321  0.34930  1.0000
  S   S13       1.0  0.11381  0.91433  0.44735  1.0000
  H   H40       1.0  0.16566  0.89112  0.35659  1.0000
  C   C29       1.0  0.12246  0.94179  0.38737  1.0000
  H   H41       1.0  0.18207  0.93126  0.27262  1.0000
  Fe  Fe7       1.0  0.05213  0.93436  0.50045  1.0000
  H   H42       1.0  0.26653  0.95532  0.31215  1.0000
  H   H43       1.0  0.10585  0.87381  0.08727  1.0000
  H   H44       1.0  0.16407  0.75796  0.04751  1.0000
  S   S14       1.0  0.29652  0.97212  0.05939  1.0000
  C   C30       1.0  0.49757  0.93565  0.11716  1.0000
  N   N3        1.0  0.02809  0.83568  0.09012  1.0000
  C   C31       1.0  0.07880  0.84609  0.11044  1.0000
  C   C32       1.0  0.03408  0.81928  0.03896  1.0000
  S   S15       1.0  0.17628  0.96845  0.10456  1.0000
  H   H45       1.0  0.07619  0.85904  0.14886  1.0000
  C   C33       1.0  0.18493  0.83350  0.03237  1.0000
  H   H46       1.0  0.09691  0.81397  0.11159  1.0000
  H   H47       1.0  0.05090  0.78647  0.03821  1.0000
  C   C34       1.0  0.45367  0.95679  0.12286  1.0000
  H   H48       1.0  0.41994  0.94278  0.10408  1.0000
  H   H49       1.0  0.03079  0.90826  0.06632  1.0000
  H   H50       1.0  0.49714  0.90535  0.09396  1.0000
  H   H51       1.0  0.30108  0.96832  0.36609  1.0000
  H   H52       1.0  0.09438  0.93937  0.70723  1.0000
  Fe  Fe8       1.0  0.03659  0.74532  0.90106  1.0000
  H   H53       1.0  0.12252  0.74191  0.96903  1.0000
  N   N4        1.0  0.07192  0.89627  0.77460  1.0000
  C   C35       1.0  0.13749  0.81531  0.94343  1.0000
  H   H54       1.0  0.09258  0.82731  0.78124  1.0000
  C   C36       1.0  0.06095  0.92883  0.73513  1.0000
  S   S16       1.0  0.10507  0.80468  0.88926  1.0000
  C   C37       1.0  0.16039  0.86174  0.95379  1.0000
  H   H55       1.0  0.20061  0.90693  0.00656  1.0000
  H   H56       1.0  0.15944  0.89082  0.92777  1.0000
  C   C38       1.0  0.02646  0.88334  0.81051  1.0000
  H   H57       1.0  0.12530  0.89630  0.83060  1.0000
  C   C39       1.0  0.13914  0.77794  0.97721  1.0000
  S   S17       1.0  0.04284  0.91174  0.58166  1.0000
  H   H58       1.0  0.10779  0.95291  0.81826  1.0000
  C   C40       1.0  0.18364  0.87092  0.99844  1.0000
  H   H59       1.0  0.11879  0.86104  0.72527  1.0000
  H   H60       1.0  0.15094  0.93035  0.77473  1.0000
  C   C41       1.0  0.11591  0.92004  0.80066  1.0000
  C   C42       1.0  0.08440  0.85273  0.75228  1.0000
  H   H61       1.0  0.03382  0.85913  0.84099  1.0000
  H   H62       1.0  0.05216  0.83390  0.73213  1.0000
  H   H63       1.0  0.05994  0.84655  0.01421  1.0000
  H   H64       1.0  0.01573  0.91533  0.82793  1.0000
  C   C43       1.0  0.16296  0.78701  0.02148  1.0000
  H   H65       1.0  0.02788  0.91220  0.71469  1.0000
  H   H66       1.0  0.05162  0.96226  0.75052  1.0000
  N   N5        1.0  0.62218  0.10690  0.08006  1.0000
  S   S18       1.0  0.72601  0.00952  0.10368  1.0000
  C   C44       1.0  0.58893  0.14156  0.07010  1.0000
  C   C45       1.0  0.67287  0.12234  0.05245  1.0000
  H   H67       1.0  0.62087  0.03189  0.07325  1.0000
  H   H68       1.0  0.57522  0.00614  0.19032  1.0000
  C   C46       1.0  0.62859  0.10425  0.13387  1.0000
  H   H69       1.0  0.64840  0.13887  0.14702  1.0000
  H   H70       1.0  0.60573  0.17759  0.08219  1.0000
  H   H71       1.0  0.55023  0.13086  0.09023  1.0000
  C   C47       1.0  0.77367  0.20594  0.11661  1.0000
  C   C48       1.0  0.59828  0.05958  0.06388  1.0000
  H   H72       1.0  0.65224  0.07741  0.14304  1.0000
  H   H73       1.0  0.59105  0.09423  0.15605  1.0000
  H   H74       1.0  0.75420  0.22166  0.14668  1.0000
  S   S19       1.0  0.75306  0.12526  0.17516  1.0000
  Fe  Fe9       1.0  0.75082  0.04700  0.17167  1.0000
  H   H75       1.0  0.55892  0.04795  0.08219  1.0000
  S   S20       1.0  0.69616  0.99731  0.22516  1.0000
  C   C49       1.0  0.54169  0.99251  0.17115  1.0000
  H   H76       1.0  0.69148  0.15835  0.06305  1.0000
  H   H77       1.0  0.58348  0.14466  0.02979  1.0000
  H   H78       1.0  0.69947  0.09779  0.06021  1.0000
  H   H79       1.0  0.00099  0.14677  0.08555  1.0000
  C   C50       1.0  0.77991  0.15868  0.12125  1.0000
  C   C51       1.0  0.81580  0.99611  0.35299  1.0000
  C   C52       1.0  0.91687  0.08561  0.06527  1.0000
  C   C53       1.0  0.82421  0.16585  0.03852  1.0000
  H   H80       1.0  0.99585  0.11857  0.49459  1.0000
  H   H81       1.0  0.89477  0.08493  0.10202  1.0000
  C   C54       1.0  0.96340  0.02666  0.09400  1.0000
  C   C55       1.0  0.88060  0.99804  0.41281  1.0000
  H   H82       1.0  0.97694  0.10965  0.13981  1.0000
  N   N6        1.0  0.96838  0.07465  0.07056  1.0000
  H   H83       1.0  0.94266  0.99900  0.07087  1.0000
  S   S21       1.0  0.90879  0.02286  0.46590  1.0000
  H   H84       1.0  0.83128  0.04959  0.40762  1.0000
  H   H85       1.0  0.94150  0.02388  0.13108  1.0000
  C   C56       1.0  0.84194  0.01789  0.39232  1.0000
  C   C57       1.0  0.80497  0.13843  0.08212  1.0000
  H   H86       1.0  0.78499  0.01086  0.33850  1.0000
  S   S22       1.0  0.81797  0.01093  0.17892  1.0000
  C   C58       1.0  0.99685  0.11009  0.10202  1.0000
  H   H87       1.0  0.00166  0.01767  0.09930  1.0000
  H   H88       1.0  0.80895  0.10163  0.08528  1.0000
  C   C59       1.0  0.81712  0.21303  0.03380  1.0000
  H   H89       1.0  0.91932  0.12160  0.04755  1.0000
  H   H90       1.0  0.89407  0.05942  0.04196  1.0000
  H   H91       1.0  0.66993  0.12398  0.01162  1.0000
  H   H92       1.0  0.93216  0.07218  0.55512  1.0000
  C   C60       1.0  0.97569  0.11592  0.75727  1.0000
  H   H93       1.0  0.98260  0.06470  0.59341  1.0000
  H   H94       1.0  0.98803  0.15714  0.64665  1.0000
  H   H95       1.0  0.96445  0.20410  0.54892  1.0000
  H   H96       1.0  0.84294  0.15022  0.00794  1.0000
  C   C61       1.0  0.94913  0.08012  0.72941  1.0000
  H   H97       1.0  0.91837  0.16915  0.59355  1.0000
  H   H98       1.0  0.97609  0.04982  0.99636  1.0000
  C   C62       1.0  0.99637  0.07631  0.02098  1.0000
  S   S23       1.0  0.94524  0.17502  0.93159  1.0000
  H   H99       1.0  0.90770  0.07436  0.73109  1.0000
  C   C63       1.0  0.95518  0.08831  0.58519  1.0000
  H   H100      1.0  0.92843  0.08813  0.61893  1.0000
  S   S24       1.0  0.94029  0.15285  0.79072  1.0000
  C   C64       1.0  0.97570  0.05186  0.69932  1.0000
  H   H101      1.0  0.95471  0.02416  0.67846  1.0000
  Fe  Fe10      1.0  0.96718  0.20168  0.85226  1.0000
  C   C65       1.0  0.94510  0.16717  0.56021  1.0000
  C   C66       1.0  0.01290  0.15635  0.61168  1.0000
  H   H102      1.0  0.00031  0.11195  0.00210  1.0000
  N   N7        1.0  0.98267  0.13682  0.57068  1.0000
  H   H103      1.0  0.59492  0.05968  0.02310  1.0000
  H   H104      1.0  0.92152  0.15297  0.52964  1.0000
  H   H105      1.0  0.78570  0.26909  0.06906  1.0000
  C   C67       1.0  0.79149  0.23276  0.07275  1.0000
  S   S25       1.0  0.92821  0.26497  0.85932  1.0000
  S   S26       1.0  0.98345  0.28547  0.96254  1.0000
  Fe  Fe11      1.0  0.00288  0.30498  0.88187  1.0000
  H   H106      1.0  0.96319  0.39390  0.93546  1.0000
  H   H107      1.0  0.94359  0.46669  0.97465  1.0000
  C   C68       1.0  0.98301  0.42854  0.92109  1.0000
  Fe  Fe12      1.0  0.91175  0.24092  0.93932  1.0000
  S   S27       1.0  0.83594  0.24718  0.97850  1.0000
  C   C69       1.0  0.97182  0.46991  0.94315  1.0000
  H   H108      1.0  0.89772  0.46528  0.78676  1.0000
  H   H109      1.0  0.90047  0.47726  0.85168  1.0000
  C   C70       1.0  0.91565  0.49093  0.81345  1.0000
  H   H110      1.0  0.92190  0.59379  0.74528  1.0000
  C   C71       1.0  0.92871  0.57134  0.84095  1.0000
  C   C72       1.0  0.92868  0.55715  0.75354  1.0000
  S   S28       1.0  0.89732  0.68825  0.78528  1.0000
  S   S29       1.0  0.98267  0.56589  0.95598  1.0000
  H   H111      1.0  0.84146  0.57470  0.79951  1.0000
  H   H112      1.0  0.91222  0.55934  0.87925  1.0000
  H   H113      1.0  0.83147  0.52544  0.84384  1.0000
  S   S30       1.0  0.90716  0.66081  0.92241  1.0000
  N   N8        1.0  0.90570  0.53931  0.80351  1.0000
  Fe  Fe13      1.0  0.98506  0.64229  0.92787  1.0000
  C   C73       1.0  0.99687  0.51530  0.92503  1.0000
  H   H114      1.0  0.92202  0.60803  0.83440  1.0000
  H   H115      1.0  0.84003  0.68398  0.70156  1.0000
  C   C74       1.0  0.86777  0.71681  0.69757  1.0000
  Fe  Fe14      1.0  0.94200  0.70233  0.85264  1.0000
  H   H116      1.0  0.97094  0.55888  0.75038  1.0000
  Fe  Fe15      1.0  0.93519  0.72693  0.96238  1.0000
  H   H117      1.0  0.97085  0.57336  0.84000  1.0000
  H   H118      1.0  0.91227  0.53393  0.72412  1.0000
  H   H119      1.0  0.95749  0.49041  0.81056  1.0000
  C   C75       1.0  0.84986  0.53840  0.80641  1.0000
  H   H120      1.0  0.83095  0.51477  0.77851  1.0000
  C   C76       1.0  0.90172  0.72885  0.73418  1.0000
  S   S31       1.0  0.01056  0.70570  0.97388  1.0000
  Fe  Fe16      1.0  0.76180  0.95750  0.22708  1.0000
  S   S32       1.0  0.73576  0.91179  0.16364  1.0000
  C   C77       1.0  0.54189  0.95350  0.14101  1.0000
  S   S33       1.0  0.59687  0.92673  0.13121  1.0000
  Fe  Fe17      1.0  0.67533  0.95707  0.15700  1.0000
  Fe  Fe18      1.0  0.78801  0.96798  0.11569  1.0000
  H   H121      1.0  0.74005  0.82749  0.08754  1.0000
  H   H122      1.0  0.62568  0.80087  0.07267  1.0000
  H   H123      1.0  0.65656  0.85265  0.10201  1.0000
  C   C78       1.0  0.64624  0.83815  0.06549  1.0000
  H   H124      1.0  0.61856  0.85913  0.05139  1.0000
  H   H125      1.0  0.72994  0.90733  0.05673  1.0000
  H   H126      1.0  0.73907  0.88462  0.47344  1.0000
  H   H127      1.0  0.75908  0.78849  0.50918  1.0000
  N   N9        1.0  0.69210  0.84096  0.03029  1.0000
  H   H128      1.0  0.71040  0.77538  0.05790  1.0000
  C   C79       1.0  0.72801  0.81357  0.05131  1.0000
  H   H129      1.0  0.00962  0.76455  0.12211  1.0000
  H   H130      1.0  0.00034  0.89241  0.12763  1.0000
  H   H131      1.0  0.96748  0.87263  0.07407  1.0000
  Fe  Fe19      1.0  0.95823  0.98083  0.50695  1.0000
  S   S34       1.0  0.78960  0.92059  0.29207  1.0000
  C   C80       1.0  0.82813  0.89976  0.51750  1.0000
  N   N10       1.0  0.80590  0.85716  0.49123  1.0000
  H   H132      1.0  0.75541  0.83966  0.43302  1.0000
  C   C81       1.0  0.77159  0.87048  0.45489  1.0000
  C   C82       1.0  0.84615  0.86641  0.08506  1.0000
  H   H133      1.0  0.95532  0.78934  0.10722  1.0000
  C   C83       1.0  0.82779  0.95397  0.33432  1.0000
  C   C84       1.0  0.87915  0.80738  0.03485  1.0000
  H   H134      1.0  0.83221  0.80502  0.44483  1.0000
  H   H135      1.0  0.85166  0.92721  0.49139  1.0000
  H   H136      1.0  0.92515  0.94264  0.40640  1.0000
  S   S35       1.0  0.96967  0.90762  0.48858  1.0000
  H   H137      1.0  0.87064  0.86342  0.43727  1.0000
  C   C85       1.0  0.99396  0.79805  0.12146  1.0000
  H   H138      1.0  0.98877  0.80900  0.16046  1.0000
  H   H139      1.0  0.82931  0.87620  0.12007  1.0000
  C   C86       1.0  0.84752  0.83726  0.46502  1.0000
  C   C87       1.0  0.85723  0.82057  0.08001  1.0000
  H   H140      1.0  0.79234  0.89868  0.42785  1.0000
  C   C88       1.0  0.89426  0.95731  0.39233  1.0000
  H   H141      1.0  0.87733  0.90267  0.33927  1.0000
  C   C89       1.0  0.86753  0.93502  0.35377  1.0000
  H   H142      1.0  0.87423  0.82701  0.49142  1.0000
  S   S36       1.0  0.83986  0.95574  0.04903  1.0000
  H   H143      1.0  0.84851  0.79513  0.11117  1.0000
  S   S37       1.0  0.89121  0.74918  0.03006  1.0000
  C   C90       1.0  0.00565  0.87922  0.08952  1.0000
  C   C91       1.0  0.85644  0.89915  0.04476  1.0000
  H   H144      1.0  0.65741  0.78303  0.98773  1.0000
  C   C92       1.0  0.67666  0.82096  0.98265  1.0000
  H   H145      1.0  0.71049  0.82261  0.95531  1.0000
  H   H146      1.0  0.64949  0.84080  0.96581  1.0000
  H   H147      1.0  0.75258  0.89478  0.99550  1.0000
  H   H148      1.0  0.74510  0.83503  0.54860  1.0000
  H   H149      1.0  0.76343  0.81539  0.02600  1.0000
  H   H150      1.0  0.99262  0.86477  0.79232  1.0000
  H   H151      1.0  0.99659  0.81090  0.02238  1.0000
  H   H152      1.0  0.85351  0.89090  0.54580  1.0000
  H   H153      1.0  0.96679  0.83482  0.68137  1.0000
  S   S38       1.0  0.96242  0.77027  0.89210  1.0000
  C   C93       1.0  0.90469  0.78942  0.64957  1.0000
  H   H154      1.0  0.88761  0.91169  0.96863  1.0000
  C   C94       1.0  0.89076  0.84057  0.99493  1.0000
  C   C95       1.0  0.93760  0.77161  0.72858  1.0000
  H   H155      1.0  0.90773  0.83075  0.96002  1.0000
  C   C96       1.0  0.87937  0.88637  0.99990  1.0000
  Fe  Fe20      1.0  0.95912  0.89168  0.57094  1.0000
  H   H156      1.0  0.96399  0.78090  0.75678  1.0000
  C   C97       1.0  0.93922  0.80196  0.68602  1.0000
  C   C98       1.0  0.86909  0.74690  0.65580  1.0000
  S   S39       1.0  0.90279  0.82501  0.59565  1.0000
  H   H157      1.0  0.80160  0.81030  0.55540  1.0000
  S   S40       1.0  0.94059  0.96301  0.58878  1.0000
  C   C99       1.0  0.71755  0.89118  0.02167  1.0000
  H   H158      1.0  0.69153  0.91311  0.00623  1.0000
  C   C100      1.0  0.77648  0.82114  0.52766  1.0000
  H   H159      1.0  0.79792  0.91639  0.53686  1.0000
  H   H160      1.0  0.84235  0.73695  0.62798  1.0000
