data_image0
_chemical_formula_structural       CSFeHC2H4NH2SH2C2SH4CH2CSCHFeSH2C3FeCH2CSHSH3NH7FeHC2H2SHCHSFeHCH2SCSFeCSH2SHC2HCHCSCHNH5CH2FeH2CH2CH3CFeH3CS3CHCH2FeCH2C2H2SC2HNHC2HCHCHCHC2H2SHCFeC3H3CHSFeHSHS2H2CH2C2NCHC2H3C4H2SCFeCHCFeHFeH4FeHCHSH4CS2HSC4H2CHCSNC2HNHCH3C3SHSHC2HNH3CH3C2H4CHSNH3SC2HC2H4CSC2HSCFe2CFeH2SHCHCH6SHSHC2H2Fe3S2NCNCH3C2HC2SCH3C2H4CSH4C2H2CHSCSH3C2FeNCH3C3HSHSHC3H2SH4FeSFeC3H2SHCH2CH2CNCHFeH2CH2CSCH2CH2CSHCH5NH2CHCHSFeSCH2FeH7C2H2S3HFeSH2CFeSCH2S2CSHCFeSCH2FeCHNHCH3CHCH2C3H3FeH3SHCHCH2CNC4HCHCHC3H4SCH
_chemical_formula_sum              "C160 S64 Fe32 H256 N16"
_cell_length_a       23.4965
_cell_length_b       36.6266
_cell_length_c       22.0051
_cell_angle_alpha    90.4874
_cell_angle_beta     90.6365
_cell_angle_gamma    89.7642

_space_group_name_H-M_alt    "P 1"
_space_group_IT_number       1

loop_
  _space_group_symop_operation_xyz
  'x, y, z'

loop_
  _atom_site_type_symbol
  _atom_site_label
  _atom_site_symmetry_multiplicity
  _atom_site_fract_x
  _atom_site_fract_y
  _atom_site_fract_z
  _atom_site_occupancy
  C   C1        1.0  0.29324  0.24055  0.19344  1.0000
  S   S1        1.0  0.33380  0.12628  0.09676  1.0000
  Fe  Fe1       1.0  0.23907  0.13346  0.09342  1.0000
  H   H1        1.0  0.25383  0.24189  0.22100  1.0000
  C   C2        1.0  0.23863  0.09229  0.29377  1.0000
  C   C3        1.0  0.27921  0.01447  0.19049  1.0000
  H   H2        1.0  0.31513  0.16954  0.20999  1.0000
  H   H3        1.0  0.21639  0.01242  0.26110  1.0000
  H   H4        1.0  0.42801  0.20800  0.21229  1.0000
  H   H5        1.0  0.27045  0.07112  0.29947  1.0000
  N   N1        1.0  0.34133  0.22456  0.22812  1.0000
  H   H6        1.0  0.26563  0.10642  0.20400  1.0000
  H   H7        1.0  0.29188  0.04219  0.20058  1.0000
  S   S2        1.0  0.35538  0.01691  0.09737  1.0000
  H   H8        1.0  0.38226  0.20597  0.14630  1.0000
  H   H9        1.0  0.28705  0.18883  0.27837  1.0000
  C   C4        1.0  0.32544  0.18782  0.24913  1.0000
  C   C5        1.0  0.23594  0.11227  0.23991  1.0000
  S   S3        1.0  0.22124  0.07477  0.07177  1.0000
  H   H10       1.0  0.69514  0.20543  0.48424  1.0000
  H   H11       1.0  0.36043  0.17476  0.27569  1.0000
  H   H12       1.0  0.28286  0.22390  0.15217  1.0000
  H   H13       1.0  0.66206  0.21031  0.37710  1.0000
  C   C6        1.0  0.39179  0.22172  0.18875  1.0000
  H   H14       1.0  0.39112  0.23710  0.30813  1.0000
  H   H15       1.0  0.21060  0.01186  0.49773  1.0000
  C   C7        1.0  0.19916  0.09894  0.33960  1.0000
  S   S4        1.0  0.19923  0.07106  0.40343  1.0000
  C   C8        1.0  0.23622  0.99780  0.22414  1.0000
  H   H16       1.0  0.69006  0.16571  0.36092  1.0000
  Fe  Fe2       1.0  0.22557  0.09189  0.97482  1.0000
  S   S5        1.0  0.31910  0.08190  0.96649  1.0000
  H   H17       1.0  0.55006  0.21335  0.86503  1.0000
  H   H18       1.0  0.43240  0.14543  0.76745  1.0000
  C   C9        1.0  0.39147  0.21901  0.99928  1.0000
  C   C10       1.0  0.46024  0.14866  0.80838  1.0000
  C   C11       1.0  0.52685  0.18699  0.86332  1.0000
  Fe  Fe3       1.0  0.32791  0.13995  0.99783  1.0000
  C   C12       1.0  0.33979  0.23308  0.02036  1.0000
  H   H19       1.0  0.55776  0.16377  0.75169  1.0000
  H   H20       1.0  0.43252  0.14626  0.84889  1.0000
  C   C13       1.0  0.52605  0.18638  0.75362  1.0000
  S   S6        1.0  0.39358  0.17720  0.96005  1.0000
  H   H21       1.0  0.48220  0.22701  0.99572  1.0000
  S   S7        1.0  0.23414  0.15160  0.99674  1.0000
  H   H22       1.0  0.22050  0.13134  0.87282  1.0000
  H   H23       1.0  0.49980  0.18531  0.71123  1.0000
  H   H24       1.0  0.41829  0.21183  0.76857  1.0000
  N   N2        1.0  0.49033  0.18403  0.80834  1.0000
  H   H25       1.0  0.30051  0.21892  0.01045  1.0000
  H   H26       1.0  0.49064  0.12530  0.80938  1.0000
  H   H27       1.0  0.55915  0.16474  0.86513  1.0000
  H   H28       1.0  0.50136  0.18544  0.90551  1.0000
  H   H29       1.0  0.30995  0.00800  0.91197  1.0000
  H   H30       1.0  0.21499  0.16704  0.77813  1.0000
  H   H31       1.0  0.42213  0.21424  0.85009  1.0000
  Fe  Fe4       1.0  0.31575  0.06907  0.06551  1.0000
  H   H32       1.0  0.46906  0.24111  0.80514  1.0000
  C   C14       1.0  0.44809  0.21408  0.80804  1.0000
  C   C15       1.0  0.44202  0.23787  0.01134  1.0000
  H   H33       1.0  0.55024  0.21246  0.75296  1.0000
  H   H34       1.0  0.26220  0.00116  0.01128  1.0000
  S   S8        1.0  0.64035  0.23746  0.62979  1.0000
  H   H35       1.0  0.24158  0.00609  0.87500  1.0000
  C   C16       1.0  0.66021  0.43087  0.47498  1.0000
  H   H36       1.0  0.66143  0.46287  0.29689  1.0000
  S   S9        1.0  0.50015  0.40193  0.15541  1.0000
  Fe  Fe5       1.0  0.47622  0.34759  0.11478  1.0000
  H   H37       1.0  0.59424  0.46026  0.21059  1.0000
  C   C17       1.0  0.61389  0.35071  0.32698  1.0000
  H   H38       1.0  0.54424  0.32496  0.27918  1.0000
  H   H39       1.0  0.30315  0.26876  0.17836  1.0000
  S   S10       1.0  0.55143  0.31733  0.15321  1.0000
  C   C18       1.0  0.64496  0.32059  0.41939  1.0000
  S   S11       1.0  0.60136  0.25587  0.45871  1.0000
  Fe  Fe6       1.0  0.57913  0.37273  0.18647  1.0000
  C   C19       1.0  0.57345  0.32332  0.31719  1.0000
  S   S12       1.0  0.38925  0.32252  0.11577  1.0000
  H   H40       1.0  0.56592  0.39195  0.45343  1.0000
  H   H41       1.0  0.61638  0.48239  0.40154  1.0000
  S   S13       1.0  0.61930  0.38733  0.27661  1.0000
  H   H42       1.0  0.51994  0.42978  0.43526  1.0000
  C   C20       1.0  0.64972  0.34926  0.37807  1.0000
  C   C21       1.0  0.62217  0.47957  0.18605  1.0000
  H   H43       1.0  0.68857  0.44842  0.50346  1.0000
  C   C22       1.0  0.60020  0.48209  0.44878  1.0000
  H   H44       1.0  0.67253  0.31988  0.45891  1.0000
  C   C23       1.0  0.56997  0.29394  0.35740  1.0000
  S   S14       1.0  0.62905  0.38473  0.10306  1.0000
  C   C24       1.0  0.60563  0.29262  0.40860  1.0000
  H   H45       1.0  0.31762  0.25088  0.31181  1.0000
  N   N3        1.0  0.60109  0.44483  0.47412  1.0000
  H   H46       1.0  0.67838  0.42986  0.42856  1.0000
  H   H47       1.0  0.53391  0.45528  0.53779  1.0000
  H   H48       1.0  0.66273  0.40277  0.49398  1.0000
  H   H49       1.0  0.57996  0.41948  0.38841  1.0000
  H   H50       1.0  0.55640  0.49382  0.44823  1.0000
  C   C25       1.0  0.56509  0.42049  0.43620  1.0000
  H   H51       1.0  0.60394  0.46515  0.56570  1.0000
  H   H52       1.0  0.53901  0.27260  0.34937  1.0000
  Fe  Fe7       1.0  0.64264  0.27211  0.54672  1.0000
  H   H53       1.0  0.36662  0.27623  0.26645  1.0000
  H   H54       1.0  0.58136  0.41854  0.55830  1.0000
  C   C26       1.0  0.57901  0.44592  0.53670  1.0000
  H   H55       1.0  0.65224  0.46274  0.15878  1.0000
  H   H56       1.0  0.68172  0.36997  0.38525  1.0000
  C   C27       1.0  0.68806  0.48217  0.27083  1.0000
  H   H57       1.0  0.59485  0.49511  0.15356  1.0000
  H   H58       1.0  0.29861  0.27709  0.06879  1.0000
  H   H59       1.0  0.40680  0.24918  0.17495  1.0000
  C   C28       1.0  0.35477  0.24821  0.28109  1.0000
  Fe  Fe8       1.0  0.54818  0.41019  0.06915  1.0000
  H   H60       1.0  0.49507  0.29646  0.86154  1.0000
  H   H61       1.0  0.51690  0.40929  0.91205  1.0000
  H   H62       1.0  0.50957  0.40086  0.83179  1.0000
  C   C29       1.0  0.62767  0.39046  0.92067  1.0000
  S   S15       1.0  0.51599  0.35916  0.02516  1.0000
  S   S16       1.0  0.54535  0.46316  0.01843  1.0000
  S   S17       1.0  0.64780  0.29338  0.01284  1.0000
  C   C30       1.0  0.63052  0.44178  0.68833  1.0000
  H   H63       1.0  0.58837  0.45720  0.89493  1.0000
  C   C31       1.0  0.66307  0.41343  0.66327  1.0000
  H   H64       1.0  0.66113  0.26854  0.79536  1.0000
  H   H65       1.0  0.61058  0.40446  0.96152  1.0000
  Fe  Fe9       1.0  0.62098  0.28975  0.67856  1.0000
  C   C32       1.0  0.56084  0.28997  0.92934  1.0000
  H   H66       1.0  0.52761  0.36416  0.88188  1.0000
  H   H67       1.0  0.66215  0.38867  0.80120  1.0000
  C   C33       1.0  0.64686  0.47805  0.68069  1.0000
  C   C34       1.0  0.53954  0.29018  0.86978  1.0000
  H   H68       1.0  0.66346  0.44011  0.02787  1.0000
  H   H69       1.0  0.62408  0.36063  0.92896  1.0000
  S   S18       1.0  0.55093  0.29086  0.74698  1.0000
  C   C35       1.0  0.63313  0.27493  0.83247  1.0000
  C   C36       1.0  0.57610  0.28395  0.82114  1.0000
  H   H70       1.0  0.53241  0.29451  0.96660  1.0000
  N   N4        1.0  0.59600  0.40137  0.86529  1.0000
  H   H71       1.0  0.61913  0.35086  0.82189  1.0000
  C   C37       1.0  0.66134  0.46942  0.02912  1.0000
  C   C38       1.0  0.61888  0.28464  0.94045  1.0000
  H   H72       1.0  0.64898  0.44776  0.84811  1.0000
  C   C39       1.0  0.65471  0.27567  0.89217  1.0000
  H   H73       1.0  0.59110  0.43577  0.71080  1.0000
  C   C40       1.0  0.53483  0.39358  0.87303  1.0000
  H   H74       1.0  0.67376  0.39689  0.91753  1.0000
  C   C41       1.0  0.60350  0.44091  0.85528  1.0000
  H   H75       1.0  0.57889  0.45034  0.81482  1.0000
  C   C42       1.0  0.44109  0.27008  0.04614  1.0000
  C   C43       1.0  0.60913  0.48757  0.02332  1.0000
  H   H76       1.0  0.48056  0.28350  0.05765  1.0000
  H   H77       1.0  0.64978  0.38545  0.66839  1.0000
  S   S19       1.0  0.61484  0.32329  0.59390  1.0000
  H   H78       1.0  0.59061  0.38405  0.77158  1.0000
  C   C44       1.0  0.33874  0.26596  0.05351  1.0000
  Fe  Fe10      1.0  0.59313  0.33239  0.06609  1.0000
  C   C45       1.0  0.61797  0.38054  0.81263  1.0000
  C   C46       1.0  0.38954  0.28416  0.06742  1.0000
  C   C47       1.0  0.25043  0.72688  0.33708  1.0000
  H   H79       1.0  0.65822  0.69591  0.34653  1.0000
  H   H80       1.0  0.66521  0.54562  0.16124  1.0000
  H   H81       1.0  0.48943  0.68787  0.54426  1.0000
  C   C48       1.0  0.66315  0.64155  0.38345  1.0000
  H   H82       1.0  0.27250  0.71947  0.29419  1.0000
  S   S20       1.0  0.55689  0.55772  0.55270  1.0000
  Fe  Fe11      1.0  0.63079  0.58999  0.51857  1.0000
  H   H83       1.0  0.63449  0.64756  0.42009  1.0000
  S   S21       1.0  0.59186  0.64482  0.53876  1.0000
  H   H84       1.0  0.67908  0.70110  0.47420  1.0000
  S   S22       1.0  0.67301  0.57234  0.43106  1.0000
  S   S23       1.0  0.68092  0.63958  0.09777  1.0000
  H   H85       1.0  0.25711  0.70418  0.36976  1.0000
  H   H86       1.0  0.28314  0.71576  0.54768  1.0000
  C   C49       1.0  0.34699  0.67402  0.55471  1.0000
  H   H87       1.0  0.58528  0.54376  0.23273  1.0000
  H   H88       1.0  0.58196  0.50860  0.28897  1.0000
  C   C50       1.0  0.67619  0.66881  0.34140  1.0000
  C   C51       1.0  0.44448  0.69389  0.54477  1.0000
  N   N5        1.0  0.65297  0.50419  0.22855  1.0000
  C   C52       1.0  0.40520  0.66598  0.55435  1.0000
  H   H89       1.0  0.20405  0.72827  0.32632  1.0000
  C   C53       1.0  0.68669  0.60662  0.37746  1.0000
  C   C54       1.0  0.32807  0.71001  0.54754  1.0000
  H   H90       1.0  0.63329  0.54468  0.29673  1.0000
  H   H91       1.0  0.68315  0.71058  0.55432  1.0000
  H   H92       1.0  0.34234  0.73684  0.40872  1.0000
  C   C55       1.0  0.36722  0.73805  0.53903  1.0000
  C   C56       1.0  0.61155  0.52624  0.26335  1.0000
  C   C57       1.0  0.42540  0.72990  0.53640  1.0000
  C   C58       1.0  0.69016  0.52871  0.19388  1.0000
  H   H93       1.0  0.62758  0.50098  0.47617  1.0000
  H   H94       1.0  0.31649  0.65238  0.56134  1.0000
  S   S24       1.0  0.42723  0.62109  0.56814  1.0000
  C   C59       1.0  0.60759  0.52574  0.02330  1.0000
  Fe  Fe12      1.0  0.52115  0.61230  0.57946  1.0000
  C   C60       1.0  0.69025  0.58226  0.78306  1.0000
  H   H95       1.0  0.32243  0.67814  0.68012  1.0000
  C   C61       1.0  0.31182  0.69866  0.71587  1.0000
  Fe  Fe13      1.0  0.63313  0.63908  0.63076  1.0000
  H   H96       1.0  0.40913  0.66205  0.73745  1.0000
  Fe  Fe14      1.0  0.69151  0.67633  0.01730  1.0000
  H   H97       1.0  0.65430  0.52704  0.89990  1.0000
  H   H98       1.0  0.56728  0.53994  0.01862  1.0000
  H   H99       1.0  0.41347  0.71249  0.66522  1.0000
  H   H100      1.0  0.61510  0.60586  0.86430  1.0000
  Fe  Fe15      1.0  0.60124  0.55991  0.64315  1.0000
  H   H101      1.0  0.57578  0.67770  0.73829  1.0000
  C   C62       1.0  0.65787  0.54562  0.03205  1.0000
  H   H102      1.0  0.61092  0.54005  0.83575  1.0000
  S   S25       1.0  0.68465  0.68237  0.67859  1.0000
  H   H103      1.0  0.65392  0.59244  0.93115  1.0000
  H   H104      1.0  0.67535  0.51474  0.82393  1.0000
  H   H105      1.0  0.54984  0.68037  0.84716  1.0000
  H   H106      1.0  0.65616  0.57500  0.03413  1.0000
  C   C63       1.0  0.34729  0.73890  0.79494  1.0000
  S   S26       1.0  0.55889  0.61151  0.67322  1.0000
  S   S27       1.0  0.61703  0.68885  0.95551  1.0000
  H   H107      1.0  0.37057  0.66738  0.80712  1.0000
  S   S28       1.0  0.60304  0.51297  0.70789  1.0000
  C   C64       1.0  0.66470  0.68805  0.75498  1.0000
  C   C65       1.0  0.60821  0.68294  0.77232  1.0000
  C   C66       1.0  0.59335  0.68512  0.83384  1.0000
  C   C67       1.0  0.63500  0.69213  0.87840  1.0000
  H   H108      1.0  0.68285  0.62576  0.88199  1.0000
  H   H109      1.0  0.28289  0.68540  0.74876  1.0000
  C   C68       1.0  0.65846  0.59996  0.88273  1.0000
  H   H110      1.0  0.64683  0.58616  0.76344  1.0000
  C   C69       1.0  0.69119  0.69852  0.86093  1.0000
  S   S29       1.0  0.67879  0.58712  0.60727  1.0000
  N   N6        1.0  0.36365  0.71288  0.74638  1.0000
  C   C70       1.0  0.39622  0.68221  0.77305  1.0000
  C   C71       1.0  0.65567  0.53667  0.85210  1.0000
  H   H111      1.0  0.43577  0.69193  0.79631  1.0000
  N   N7        1.0  0.68762  0.57116  0.84742  1.0000
  H   H112      1.0  0.28702  0.72095  0.69382  1.0000
  C   C72       1.0  0.39926  0.73169  0.70148  1.0000
  H   H113      1.0  0.31930  0.72581  0.82897  1.0000
  H   H114      1.0  0.43813  0.74356  0.72305  1.0000
  H   H115      1.0  0.21503  0.79433  0.30704  1.0000
  C   C73       1.0  0.21806  0.96257  0.20874  1.0000
  C   C74       1.0  0.30639  0.99512  0.14403  1.0000
  C   C75       1.0  0.24093  0.77055  0.41910  1.0000
  S   S30       1.0  0.20380  0.83951  0.55742  1.0000
  H   H116      1.0  0.28308  0.78554  0.27411  1.0000
  S   S31       1.0  0.34390  0.78330  0.53191  1.0000
  H   H117      1.0  0.22299  0.99439  0.38988  1.0000
  C   C76       1.0  0.29124  0.95895  0.13186  1.0000
  C   C77       1.0  0.24619  0.94303  0.16306  1.0000
  H   H118      1.0  0.35011  0.78469  0.39579  1.0000
  N   N8        1.0  0.27141  0.76191  0.36234  1.0000
  H   H119      1.0  0.23328  0.91570  0.15118  1.0000
  H   H120      1.0  0.45582  0.75152  0.52939  1.0000
  H   H121      1.0  0.25889  0.95395  0.41556  1.0000
  C   C78       1.0  0.26118  0.79128  0.31779  1.0000
  H   H122      1.0  0.25507  0.79709  0.43901  1.0000
  H   H123      1.0  0.27660  0.81811  0.33530  1.0000
  H   H124      1.0  0.31294  0.94364  0.09685  1.0000
  C   C79       1.0  0.33310  0.75892  0.37549  1.0000
  C   C80       1.0  0.21640  0.96558  0.40394  1.0000
  H   H125      1.0  0.24853  0.74932  0.45416  1.0000
  H   H126      1.0  0.35768  0.75284  0.33365  1.0000
  H   H127      1.0  0.24215  0.97010  0.52420  1.0000
  H   H128      1.0  0.19977  0.95050  0.36349  1.0000
  C   C81       1.0  0.20151  0.98283  0.50867  1.0000
  H   H129      1.0  0.20850  0.91109  0.48465  1.0000
  S   S32       1.0  0.19609  0.84611  0.18649  1.0000
  N   N9        1.0  0.25852  0.96241  0.93755  1.0000
  H   H130      1.0  0.20216  0.91655  0.94194  1.0000
  H   H131      1.0  0.32977  0.92644  0.92265  1.0000
  H   H132      1.0  0.33977  0.95924  0.98338  1.0000
  S   S33       1.0  0.27319  0.81370  0.68032  1.0000
  C   C82       1.0  0.23205  0.80862  0.84214  1.0000
  C   C83       1.0  0.22790  0.82005  0.95063  1.0000
  H   H133      1.0  0.21715  0.96263  0.02427  1.0000
  C   C84       1.0  0.24367  0.83096  0.89256  1.0000
  C   C85       1.0  0.30795  0.94122  0.96019  1.0000
  H   H134      1.0  0.29479  0.92037  0.99376  1.0000
  H   H135      1.0  0.26430  0.85698  0.88635  1.0000
  H   H136      1.0  0.24298  0.81801  0.79775  1.0000
  H   H137      1.0  0.23521  0.92268  0.86937  1.0000
  C   C86       1.0  0.23175  0.98195  0.98895  1.0000
  S   S34       1.0  0.24128  0.84960  0.01215  1.0000
  C   C87       1.0  0.27768  0.98909  0.89215  1.0000
  C   C88       1.0  0.21666  0.93742  0.90902  1.0000
  H   H138      1.0  0.29710  0.97528  0.85213  1.0000
  S   S35       1.0  0.20795  0.91048  0.69720  1.0000
  C   C89       1.0  0.20176  0.78615  0.95838  1.0000
  Fe  Fe16      1.0  0.20549  0.85432  0.65661  1.0000
  Fe  Fe17      1.0  0.26408  0.79460  0.58410  1.0000
  C   C90       1.0  0.20732  0.77433  0.84957  1.0000
  Fe  Fe18      1.0  0.19984  0.77681  0.69885  1.0000
  H   H139      1.0  0.37554  0.75429  0.67877  1.0000
  H   H140      1.0  0.32305  0.76249  0.77619  1.0000
  S   S36       1.0  0.19636  0.75346  0.60418  1.0000
  H   H141      1.0  0.38519  0.74990  0.81961  1.0000
  C   C91       1.0  0.08200  0.08607  0.16504  1.0000
  H   H142      1.0  0.14521  0.05448  0.24994  1.0000
  C   C92       1.0  0.76190  0.24155  0.40715  1.0000
  H   H143      1.0  0.07840  0.06559  0.28321  1.0000
  H   H144      1.0  0.12794  0.09266  0.16063  1.0000
  H   H145      1.0  0.72269  0.16061  0.46825  1.0000
  H   H146      1.0  0.00558  0.01279  0.21076  1.0000
  H   H147      1.0  0.81228  0.18929  0.33890  1.0000
  H   H148      1.0  0.99022  0.06048  0.22217  1.0000
  S   S37       1.0  0.13985  0.06769  0.56294  1.0000
  H   H149      1.0  0.06226  0.08916  0.11917  1.0000
  S   S38       1.0  0.19093  0.16396  0.16496  1.0000
  H   H150      1.0  0.12710  0.13134  0.36750  1.0000
  C   C93       1.0  0.73304  0.19020  0.46739  1.0000
  C   C94       1.0  0.10225  0.02209  0.14855  1.0000
  H   H151      1.0  0.71131  0.20421  0.31629  1.0000
  H   H152      1.0  0.14903  0.02660  0.14729  1.0000
  Fe  Fe19      1.0  0.04673  0.05633  0.55266  1.0000
  Fe  Fe20      1.0  0.13226  0.08905  0.46855  1.0000
  Fe  Fe21      1.0  0.02181  0.12870  0.49340  1.0000
  S   S39       1.0  0.04110  0.07320  0.45512  1.0000
  S   S40       1.0  0.95542  0.16681  0.45598  1.0000
  N   N10       1.0  0.74891  0.20210  0.40581  1.0000
  C   C95       1.0  0.01273  0.04060  0.19222  1.0000
  N   N11       1.0  0.07412  0.04887  0.18907  1.0000
  C   C96       1.0  0.89290  0.21552  0.52224  1.0000
  H   H153      1.0  0.79208  0.15151  0.38574  1.0000
  H   H154      1.0  0.09744  0.01852  0.26907  1.0000
  H   H155      1.0  0.12470  0.16833  0.27370  1.0000
  C   C97       1.0  0.15651  0.14713  0.27928  1.0000
  C   C98       1.0  0.09967  0.04670  0.25059  1.0000
  H   H156      1.0  0.06333  0.10724  0.19561  1.0000
  C   C99       1.0  0.15809  0.12636  0.33246  1.0000
  C   C100      1.0  0.79962  0.18148  0.38560  1.0000
  S   S41       1.0  0.11297  0.14652  0.49731  1.0000
  C   C101      1.0  0.90992  0.17911  0.51507  1.0000
  H   H157      1.0  0.83691  0.18678  0.41590  1.0000
  H   H158      1.0  0.90314  0.12443  0.54946  1.0000
  H   H159      1.0  0.99216  0.04164  0.14644  1.0000
  C   C102      1.0  0.89112  0.15274  0.55571  1.0000
  C   C103      1.0  0.70107  0.19521  0.36308  1.0000
  H   H160      1.0  0.76820  0.19488  0.50076  1.0000
  H   H161      1.0  0.08569  0.02389  0.10109  1.0000
  H   H162      1.0  0.12702  0.00949  0.42715  1.0000
  H   H163      1.0  0.90808  0.23603  0.49129  1.0000
  C   C104      1.0  0.19509  0.13977  0.23282  1.0000
  S   S42       1.0  0.79408  0.21125  0.67110  1.0000
  H   H164      1.0  0.03802  0.14530  0.71646  1.0000
  H   H165      1.0  0.09991  0.02264  0.66180  1.0000
  H   H166      1.0  0.04355  0.20986  0.80514  1.0000
  H   H167      1.0  0.00803  0.23487  0.64507  1.0000
  C   C105      1.0  0.04753  0.21476  0.75553  1.0000
  C   C106      1.0  0.83873  0.19920  0.61112  1.0000
  H   H168      1.0  0.99299  0.15252  0.78062  1.0000
  H   H169      1.0  0.84133  0.14235  0.63536  1.0000
  C   C107      1.0  0.85594  0.16284  0.60404  1.0000
  H   H170      1.0  0.96222  0.14558  0.70615  1.0000
  S   S43       1.0  0.01928  0.11048  0.59038  1.0000
  C   C108      1.0  0.13146  0.07632  0.79112  1.0000
  S   S44       1.0  0.15416  0.15522  0.66646  1.0000
  H   H171      1.0  0.10790  0.05113  0.79477  1.0000
  H   H172      1.0  0.10412  0.08629  0.69887  1.0000
  H   H173      1.0  0.97235  0.19285  0.62767  1.0000
  C   C109      1.0  0.99803  0.15873  0.73158  1.0000
  C   C110      1.0  0.12941  0.09614  0.73685  1.0000
  Fe  Fe22      1.0  0.11218  0.12370  0.59116  1.0000
  N   N12       1.0  0.99960  0.19849  0.72080  1.0000
  C   C111      1.0  0.00732  0.20519  0.65524  1.0000
  H   H174      1.0  0.08902  0.20278  0.74134  1.0000
  H   H175      1.0  0.90844  0.20258  0.71685  1.0000
  H   H176      1.0  0.04797  0.19316  0.63866  1.0000
  C   C112      1.0  0.15917  0.12901  0.73239  1.0000
  C   C113      1.0  0.94549  0.21516  0.74080  1.0000
  C   C114      1.0  0.16388  0.08918  0.84053  1.0000
  H   H177      1.0  0.04999  0.24475  0.74846  1.0000
  S   S45       1.0  0.16530  0.06502  0.90892  1.0000
  H   H178      1.0  0.93888  0.21144  0.79034  1.0000
  S   S46       1.0  0.01038  0.00216  0.57741  1.0000
  H   H179      1.0  0.94399  0.24495  0.73130  1.0000
  C   C115      1.0  0.19174  0.14172  0.78162  1.0000
  C   C116      1.0  0.85761  0.22561  0.57055  1.0000
  C   C117      1.0  0.19463  0.12159  0.83538  1.0000
  H   H180      1.0  0.19432  0.99832  0.97367  1.0000
  H   H181      1.0  0.77446  0.25151  0.36161  1.0000
  S   S47       1.0  0.73574  0.28383  0.55425  1.0000
  H   H182      1.0  0.72423  0.25787  0.42152  1.0000
  H   H183      1.0  0.71991  0.46534  0.24584  1.0000
  H   H184      1.0  0.79732  0.24782  0.43961  1.0000
  H   H185      1.0  0.69956  0.27081  0.90065  1.0000
  Fe  Fe23      1.0  0.73136  0.25417  0.64256  1.0000
  S   S48       1.0  0.71216  0.30409  0.69846  1.0000
  Fe  Fe24      1.0  0.70816  0.33249  0.60881  1.0000
  C   C118      1.0  0.71158  0.48928  0.03725  1.0000
  C   C119      1.0  0.72868  0.45777  0.62331  1.0000
  C   C120      1.0  0.71168  0.42147  0.62996  1.0000
  H   H186      1.0  0.75178  0.47509  0.04301  1.0000
  H   H187      1.0  0.84617  0.25395  0.57722  1.0000
  S   S49       1.0  0.74864  0.38668  0.59244  1.0000
  H   H188      1.0  0.76644  0.46397  0.59767  1.0000
  C   C121      1.0  0.69611  0.48610  0.64849  1.0000
  H   H189      1.0  0.01673  0.71102  0.17900  1.0000
  H   H190      1.0  0.74113  0.57199  0.32378  1.0000
  C   C122      1.0  0.76025  0.65912  0.52590  1.0000
  H   H191      1.0  0.76170  0.61967  0.24733  1.0000
  H   H192      1.0  0.85832  0.70986  0.19712  1.0000
  C   C123      1.0  0.73394  0.62577  0.28503  1.0000
  N   N13       1.0  0.76356  0.69855  0.51266  1.0000
  C   C124      1.0  0.79142  0.70372  0.45344  1.0000
  H   H193      1.0  0.08325  0.71431  0.34733  1.0000
  Fe  Fe25      1.0  0.74183  0.67740  0.14536  1.0000
  H   H194      1.0  0.06256  0.72587  0.45610  1.0000
  H   H195      1.0  0.70635  0.74407  0.50105  1.0000
  C   C125      1.0  0.94425  0.73767  0.26218  1.0000
  H   H196      1.0  0.83563  0.69269  0.45390  1.0000
  H   H197      1.0  0.80317  0.64619  0.52705  1.0000
  C   C126      1.0  0.71162  0.66102  0.29213  1.0000
  S   S50       1.0  0.81998  0.64663  0.11750  1.0000
  C   C127      1.0  0.08428  0.74192  0.36519  1.0000
  H   H198      1.0  0.71392  0.54785  0.22416  1.0000
  H   H199      1.0  0.76783  0.68947  0.41609  1.0000
  C   C128      1.0  0.72207  0.59879  0.32811  1.0000
  H   H200      1.0  0.98974  0.74031  0.27616  1.0000
  H   H201      1.0  0.72226  0.51305  0.16730  1.0000
  C   C129      1.0  0.97057  0.70898  0.16724  1.0000
  S   S51       1.0  0.73002  0.69618  0.24219  1.0000
  H   H202      1.0  0.73427  0.64425  0.49112  1.0000
  C   C130      1.0  0.70551  0.71427  0.51039  1.0000
  H   H203      1.0  0.95517  0.68185  0.18218  1.0000
  H   H204      1.0  0.84091  0.70573  0.56471  1.0000
  H   H205      1.0  0.96677  0.70947  0.11667  1.0000
  H   H206      1.0  0.79361  0.73313  0.44135  1.0000
  H   H207      1.0  0.92836  0.71141  0.28039  1.0000
  N   N14       1.0  0.93768  0.73907  0.19538  1.0000
  H   H208      1.0  0.71161  0.49981  0.30396  1.0000
  H   H209      1.0  0.87072  0.73433  0.12843  1.0000
  C   C131      1.0  0.87683  0.73534  0.17862  1.0000
  H   H210      1.0  0.80057  0.74691  0.55263  1.0000
  C   C132      1.0  0.79699  0.71709  0.56111  1.0000
  H   H211      1.0  0.71331  0.60858  0.77798  1.0000
  S   S52       1.0  0.90139  0.70242  0.99875  1.0000
  Fe  Fe26      1.0  0.75954  0.61191  0.06328  1.0000
  S   S53       1.0  0.76546  0.64533  0.97938  1.0000
  C   C133      1.0  0.70975  0.52737  0.03983  1.0000
  H   H212      1.0  0.70911  0.51406  0.64270  1.0000
  H   H213      1.0  0.72343  0.70446  0.89503  1.0000
  Fe  Fe27      1.0  0.81848  0.68321  0.03633  1.0000
  H   H214      1.0  0.74049  0.65440  0.57084  1.0000
  H   H215      1.0  0.77678  0.71386  0.60638  1.0000
  H   H216      1.0  0.77147  0.59143  0.86824  1.0000
  H   H217      1.0  0.76898  0.54397  0.84697  1.0000
  H   H218      1.0  0.74962  0.70102  0.78613  1.0000
  H   H219      1.0  0.17312  0.73652  0.91409  1.0000
  H   H220      1.0  0.71196  0.56122  0.75470  1.0000
  C   C134      1.0  0.74595  0.56598  0.87184  1.0000
  C   C135      1.0  0.70594  0.69663  0.79926  1.0000
  H   H221      1.0  0.74554  0.55853  0.92085  1.0000
  H   H222      1.0  0.00278  0.74178  0.97615  1.0000
  S   S54       1.0  0.77213  0.55136  0.05667  1.0000
  S   S55       1.0  0.19524  0.74569  0.78619  1.0000
  S   S56       1.0  0.74495  0.71732  0.06825  1.0000
  H   H223      1.0  0.13802  0.92193  0.50964  1.0000
  Fe  Fe28      1.0  0.11725  0.81220  0.19294  1.0000
  S   S57       1.0  0.05727  0.85942  0.20508  1.0000
  H   H224      1.0  0.93448  0.79786  0.19157  1.0000
  H   H225      1.0  0.14946  0.90902  0.43191  1.0000
  C   C136      1.0  0.09664  0.77103  0.32680  1.0000
  Fe  Fe29      1.0  0.17685  0.84702  0.08630  1.0000
  S   S58       1.0  0.05791  0.79177  0.52679  1.0000
  C   C137      1.0  0.08748  0.81312  0.41211  1.0000
  H   H226      1.0  0.09086  0.97894  0.47670  1.0000
  H   H227      1.0  0.85096  0.75856  0.19626  1.0000
  S   S59       1.0  0.12201  0.89703  0.09007  1.0000
  S   S60       1.0  0.15793  0.94394  0.24343  1.0000
  C   C138      1.0  0.09836  0.80668  0.35024  1.0000
  S   S61       1.0  0.11138  0.76188  0.25017  1.0000
  H   H228      1.0  0.92037  0.76025  0.28465  1.0000
  C   C139      1.0  0.16787  0.92459  0.47107  1.0000
  Fe  Fe30      1.0  0.13519  0.89333  0.19067  1.0000
  S   S62       1.0  0.10437  0.80788  0.09204  1.0000
  C   C140      1.0  0.07437  0.78397  0.45027  1.0000
  H   H229      1.0  0.08833  0.84068  0.43023  1.0000
  H   H230      1.0  0.10834  0.82926  0.32093  1.0000
  Fe  Fe31      1.0  0.05059  0.85807  0.10323  1.0000
  C   C141      1.0  0.12177  0.98020  0.43868  1.0000
  H   H231      1.0  0.19427  0.77236  0.41130  1.0000
  N   N15       1.0  0.17690  0.96330  0.45558  1.0000
  H   H232      1.0  0.00470  0.77842  0.18672  1.0000
  C   C142      1.0  0.07275  0.74841  0.42669  1.0000
  H   H233      1.0  0.10221  0.96634  0.39842  1.0000
  H   H234      1.0  0.95713  0.77562  0.12315  1.0000
  H   H235      1.0  0.09576  0.99360  0.16426  1.0000
  C   C143      1.0  0.95935  0.77434  0.17341  1.0000
  H   H236      1.0  0.17195  0.98273  0.54783  1.0000
  C   C144      1.0  0.91556  0.74928  0.00277  1.0000
  H   H237      1.0  0.11045  0.88916  0.62489  1.0000
  H   H238      1.0  0.02893  0.80619  0.99487  1.0000
  C   C145      1.0  0.98590  0.79747  0.00265  1.0000
  C   C146      1.0  0.87422  0.77450  0.02135  1.0000
  C   C147      1.0  0.10807  0.91816  0.63368  1.0000
  H   H239      1.0  0.08699  0.80138  0.82080  1.0000
  H   H240      1.0  0.03735  0.84630  0.75426  1.0000
  H   H241      1.0  0.13403  0.85961  0.79829  1.0000
  Fe  Fe32      1.0  0.13650  0.79968  0.58391  1.0000
  H   H242      1.0  0.05704  0.86802  0.94465  1.0000
  H   H243      1.0  0.01111  0.88836  0.78560  1.0000
  H   H244      1.0  0.14090  0.86997  0.87774  1.0000
  S   S63       1.0  0.13254  0.81857  0.68081  1.0000
  H   H245      1.0  0.09440  0.81074  0.90060  1.0000
  C   C148      1.0  0.11187  0.87230  0.83769  1.0000
  H   H246      1.0  0.10629  0.90180  0.82723  1.0000
  C   C149      1.0  0.01877  0.85898  0.79569  1.0000
  H   H247      1.0  0.17858  0.95268  0.89225  1.0000
  H   H248      1.0  0.97664  0.84599  0.80300  1.0000
  C   C150      1.0  0.15001  0.93550  0.66897  1.0000
  N   N16       1.0  0.05675  0.85444  0.84914  1.0000
  C   C151      1.0  0.06134  0.97639  0.61682  1.0000
  C   C152      1.0  0.88932  0.81102  0.03265  1.0000
  C   C153      1.0  0.10225  0.99355  0.65369  1.0000
  C   C154      1.0  0.03005  0.87137  0.90308  1.0000
  H   H249      1.0  0.83107  0.76578  0.02864  1.0000
  C   C155      1.0  0.06628  0.81510  0.86026  1.0000
  H   H250      1.0  0.02264  0.90113  0.89676  1.0000
  C   C156      1.0  0.14649  0.97309  0.68000  1.0000
  H   H251      1.0  0.98807  0.85879  0.91284  1.0000
  C   C157      1.0  0.06343  0.93856  0.60810  1.0000
  C   C158      1.0  0.97089  0.76111  0.99139  1.0000
  C   C159      1.0  0.94577  0.82209  0.02554  1.0000
  H   H252      1.0  0.02558  0.80063  0.86885  1.0000
  H   H253      1.0  0.03168  0.92521  0.57976  1.0000
  H   H254      1.0  0.19019  0.77734  0.00334  1.0000
  H   H255      1.0  0.17861  0.98658  0.70766  1.0000
  S   S64       1.0  0.96787  0.86491  0.05247  1.0000
  C   C160      1.0  0.19240  0.76301  0.90793  1.0000
  H   H256      1.0  0.85795  0.83013  0.04971  1.0000
