data_image0
_chemical_formula_structural       HCH2SHCHCHC3SCH6CH3FeSFeS2CH3FeHCHFeH3FeC5H2SH6CNC2SCH4C3H2S2CH2C3HCH7S2FeHSFe2CHCH3CHCH3SHSC3SCH2SH2NC3HCHFeH2C2HC2SHSH3CHSH2C2H2CH3CSCHFeCSCFeHCH3CH3CNH2SH4C3HCH3CHCSH3NHCH2CSH4C3SC3HCNHNH3C2H4CHSFe2HCS2HFeSFeHCH2NHCHSHC2NH2CHC2H3FeHC2SH2C3HCSCNH2C2H3C2NCSC2HCH5SH2CH2SFeHS3C2H3CH2C2HS2CH2SFe2H2CH2SFeCHCNSCH3CH2C2HCSCH3CHCHCH4CH4SCSC2NFeHSCHSFe2HCHFeSHCHCNH3C2H2C2HCH3SCHC2H4SNH3CHFeSC5H4CSH2CFeH2CHCSHFeHSCNCHSFe2H10CSH2C4S3CHCH5C3HSHCHCHC2H3C2NH6FeSFeCFeSH2SH3CH
_chemical_formula_sum              "H256 C160 S64 Fe32 N16"
_cell_length_a       18.5678
_cell_length_b       21.1683
_cell_length_c       19.7031
_cell_angle_alpha    94.364
_cell_angle_beta     85.6054
_cell_angle_gamma    80.8587

_space_group_name_H-M_alt    "P 1"
_space_group_IT_number       1

loop_
  _space_group_symop_operation_xyz
  'x, y, z'

loop_
  _atom_site_type_symbol
  _atom_site_label
  _atom_site_symmetry_multiplicity
  _atom_site_fract_x
  _atom_site_fract_y
  _atom_site_fract_z
  _atom_site_occupancy
  H   H1        1.0  0.47181  0.62592  0.86693  1.0000
  C   C1        1.0  0.55524  0.50433  0.89987  1.0000
  H   H2        1.0  0.52903  0.51579  0.85248  1.0000
  H   H3        1.0  0.31942  0.32367  0.87294  1.0000
  S   S1        1.0  0.34821  0.60627  0.95205  1.0000
  H   H4        1.0  0.10483  0.18976  0.85653  1.0000
  C   C2        1.0  0.44259  0.19092  0.89411  1.0000
  H   H5        1.0  0.38298  0.50501  0.83410  1.0000
  C   C3        1.0  0.34287  0.28000  0.89363  1.0000
  H   H6        1.0  0.20582  0.44961  0.86980  1.0000
  C   C4        1.0  0.33261  0.19746  0.97073  1.0000
  C   C5        1.0  0.41276  0.24814  0.86825  1.0000
  C   C6        1.0  0.34168  0.47291  0.84250  1.0000
  S   S2        1.0  0.21387  0.29252  0.97322  1.0000
  C   C7        1.0  0.30249  0.25430  0.94423  1.0000
  H   H7        1.0  0.32430  0.47756  0.89821  1.0000
  H   H8        1.0  0.22445  0.56443  0.87721  1.0000
  H   H9        1.0  0.07623  0.38258  0.98844  1.0000
  H   H10       1.0  0.52103  0.53357  0.94374  1.0000
  H   H11       1.0  0.11016  0.38263  0.86381  1.0000
  H   H12       1.0  0.55291  0.45295  0.90633  1.0000
  C   C8        1.0  0.40280  0.16578  0.94572  1.0000
  H   H13       1.0  0.24717  0.33088  0.11564  1.0000
  H   H14       1.0  0.10567  0.44450  0.13055  1.0000
  H   H15       1.0  0.42940  0.38279  0.12822  1.0000
  Fe  Fe1       1.0  0.24087  0.61918  0.01580  1.0000
  S   S3        1.0  0.18580  0.20237  0.13578  1.0000
  Fe  Fe2       1.0  0.15986  0.22279  0.02995  1.0000
  S   S4        1.0  0.22855  0.64587  0.12850  1.0000
  S   S5        1.0  0.18393  0.53362  0.02313  1.0000
  C   C9        1.0  0.29084  0.36106  0.11987  1.0000
  H   H16       1.0  0.32031  0.35865  0.06811  1.0000
  H   H17       1.0  0.26309  0.41148  0.13328  1.0000
  H   H18       1.0  0.33950  0.23935  0.14373  1.0000
  Fe  Fe3       1.0  0.16418  0.56545  0.13517  1.0000
  H   H19       1.0  0.41208  0.27081  0.09945  1.0000
  C   C10       1.0  0.37910  0.27327  0.14953  1.0000
  H   H20       1.0  0.30189  0.17771  0.01037  1.0000
  Fe  Fe4       1.0  0.08171  0.60339  0.01156  1.0000
  H   H21       1.0  0.36849  0.43345  0.19297  1.0000
  H   H22       1.0  0.50253  0.41479  0.32661  1.0000
  H   H23       1.0  0.11375  0.64090  0.29204  1.0000
  Fe  Fe5       1.0  0.55185  0.53911  0.28467  1.0000
  C   C11       1.0  0.11957  0.42610  0.29943  1.0000
  C   C12       1.0  0.12832  0.45128  0.23624  1.0000
  C   C13       1.0  0.09895  0.42515  0.17948  1.0000
  C   C14       1.0  0.29894  0.34036  0.23826  1.0000
  C   C15       1.0  0.39556  0.38298  0.17740  1.0000
  H   H24       1.0  0.33427  0.32006  0.27711  1.0000
  H   H25       1.0  0.43340  0.36885  0.21671  1.0000
  S   S6        1.0  0.18106  0.51206  0.22797  1.0000
  H   H26       1.0  0.27442  0.39027  0.25863  1.0000
  H   H27       1.0  0.25122  0.62266  0.26743  1.0000
  H   H28       1.0  0.16082  0.22853  0.31080  1.0000
  H   H29       1.0  0.25337  0.31222  0.23473  1.0000
  H   H30       1.0  0.52001  0.28773  0.26596  1.0000
  H   H31       1.0  0.41709  0.25494  0.18732  1.0000
  C   C16       1.0  0.56428  0.27523  0.22624  1.0000
  N   N1        1.0  0.34112  0.33938  0.17126  1.0000
  C   C17       1.0  0.25353  0.62431  0.32359  1.0000
  C   C18       1.0  0.08218  0.37406  0.30569  1.0000
  S   S7        1.0  0.57036  0.51046  0.17211  1.0000
  C   C19       1.0  0.31662  0.43852  0.43719  1.0000
  H   H32       1.0  0.31550  0.53940  0.43046  1.0000
  H   H33       1.0  0.20003  0.22198  0.39109  1.0000
  H   H34       1.0  0.26533  0.44569  0.46829  1.0000
  H   H35       1.0  0.10252  0.24418  0.38886  1.0000
  C   C20       1.0  0.45056  0.42145  0.35711  1.0000
  C   C21       1.0  0.12187  0.64403  0.34754  1.0000
  C   C22       1.0  0.34516  0.49171  0.41558  1.0000
  H   H36       1.0  0.30654  0.63901  0.33520  1.0000
  H   H37       1.0  0.19992  0.62422  0.45471  1.0000
  S   S8        1.0  0.44289  0.55200  0.34645  1.0000
  S   S9        1.0  0.31589  0.30960  0.44196  1.0000
  C   C23       1.0  0.41159  0.48350  0.37487  1.0000
  H   H38       1.0  0.45176  0.32001  0.36605  1.0000
  H   H39       1.0  0.54082  0.22800  0.46828  1.0000
  C   C24       1.0  0.42181  0.36795  0.37903  1.0000
  C   C25       1.0  0.15244  0.21265  0.36298  1.0000
  C   C26       1.0  0.35421  0.37648  0.41828  1.0000
  H   H40       1.0  0.25486  0.57417  0.33725  1.0000
  C   C27       1.0  0.54953  0.17760  0.48245  1.0000
  H   H41       1.0  0.44392  0.20346  0.39897  1.0000
  H   H42       1.0  0.14261  0.44618  0.34335  1.0000
  H   H43       1.0  0.45336  0.64453  0.46542  1.0000
  H   H44       1.0  0.12285  0.59479  0.36424  1.0000
  H   H45       1.0  0.07604  0.35429  0.35442  1.0000
  H   H46       1.0  0.56253  0.56958  0.48826  1.0000
  H   H47       1.0  0.56972  0.17853  0.53416  1.0000
  S   S10       1.0  0.14078  0.27047  0.54297  1.0000
  S   S11       1.0  0.22308  0.37435  0.62585  1.0000
  Fe  Fe6       1.0  0.12614  0.44839  0.61309  1.0000
  H   H48       1.0  0.37258  0.16864  0.53272  1.0000
  S   S12       1.0  0.12473  0.42038  0.50133  1.0000
  Fe  Fe7       1.0  0.14106  0.31112  0.65154  1.0000
  Fe  Fe8       1.0  0.21568  0.34036  0.51638  1.0000
  C   C28       1.0  0.23093  0.56891  0.59410  1.0000
  H   H49       1.0  0.32712  0.58943  0.53663  1.0000
  C   C29       1.0  0.28469  0.60629  0.57753  1.0000
  H   H50       1.0  0.41493  0.23846  0.52421  1.0000
  H   H51       1.0  0.23237  0.52252  0.56659  1.0000
  H   H52       1.0  0.44374  0.18392  0.58589  1.0000
  C   C30       1.0  0.42570  0.18667  0.53345  1.0000
  H   H53       1.0  0.49170  0.64242  0.58303  1.0000
  C   C31       1.0  0.17530  0.59197  0.64617  1.0000
  H   H54       1.0  0.16498  0.16578  0.64009  1.0000
  H   H55       1.0  0.34308  0.51629  0.71646  1.0000
  H   H56       1.0  0.46995  0.56828  0.75209  1.0000
  S   S13       1.0  0.10735  0.54679  0.66773  1.0000
  H   H57       1.0  0.25816  0.49223  0.69685  1.0000
  S   S14       1.0  0.48573  0.43181  0.71617  1.0000
  C   C32       1.0  0.17471  0.65106  0.68305  1.0000
  C   C33       1.0  0.22513  0.44642  0.81457  1.0000
  C   C34       1.0  0.30452  0.48262  0.72868  1.0000
  S   S15       1.0  0.14578  0.26653  0.75113  1.0000
  C   C35       1.0  0.13456  0.18584  0.74817  1.0000
  H   H58       1.0  0.24919  0.39538  0.79829  1.0000
  H   H59       1.0  0.33336  0.43301  0.71218  1.0000
  S   S16       1.0  0.55141  0.24175  0.69350  1.0000
  H   H60       1.0  0.17645  0.45877  0.78541  1.0000
  H   H61       1.0  0.19494  0.57059  0.79312  1.0000
  N   N2        1.0  0.27876  0.48974  0.80201  1.0000
  C   C36       1.0  0.53713  0.48934  0.68979  1.0000
  C   C37       1.0  0.52002  0.55281  0.71920  1.0000
  C   C38       1.0  0.24349  0.55693  0.82191  1.0000
  H   H62       1.0  0.55847  0.64337  0.73443  1.0000
  C   C39       1.0  0.57020  0.59509  0.70955  1.0000
  H   H63       1.0  0.28215  0.59110  0.81197  1.0000
  Fe  Fe9       1.0  0.56365  0.34225  0.72917  1.0000
  H   H64       1.0  0.44283  0.26734  0.82776  1.0000
  H   H65       1.0  0.36997  0.42273  0.82805  1.0000
  C   C40       1.0  0.09622  0.83918  0.94483  1.0000
  C   C41       1.0  0.37722  0.67713  0.92878  1.0000
  H   H66       1.0  0.42595  0.12170  0.96603  1.0000
  C   C42       1.0  0.43053  0.78838  0.89413  1.0000
  C   C43       1.0  0.46881  0.72786  0.86926  1.0000
  S   S17       1.0  0.46672  0.85738  0.87569  1.0000
  H   H67       1.0  0.09541  0.99967  0.94794  1.0000
  S   S18       1.0  0.16443  0.11923  0.99386  1.0000
  H   H68       1.0  0.13033  0.82468  0.89546  1.0000
  H   H69       1.0  0.15243  0.93709  0.89339  1.0000
  H   H70       1.0  0.33408  0.84037  0.95328  1.0000
  C   C44       1.0  0.11944  0.94785  0.94374  1.0000
  H   H71       1.0  0.15716  0.94080  0.98483  1.0000
  S   S19       1.0  0.52879  0.15008  0.86074  1.0000
  H   H72       1.0  0.08677  0.07683  0.85424  1.0000
  H   H73       1.0  0.31263  0.07554  0.88894  1.0000
  C   C45       1.0  0.36424  0.79346  0.93488  1.0000
  C   C46       1.0  0.33761  0.73772  0.95247  1.0000
  H   H74       1.0  0.32141  0.95746  0.86615  1.0000
  H   H75       1.0  0.13216  0.82962  0.98680  1.0000
  C   C47       1.0  0.44207  0.67246  0.88642  1.0000
  H   H76       1.0  0.51927  0.72364  0.83697  1.0000
  H   H77       1.0  0.28711  0.74153  0.98474  1.0000
  H   H78       1.0  0.43424  0.00645  0.86568  1.0000
  C   C48       1.0  0.31224  0.07940  0.83295  1.0000
  S   S20       1.0  0.14020  0.68680  0.99722  1.0000
  C   C49       1.0  0.51193  0.82851  0.07003  1.0000
  H   H79       1.0  0.48298  0.84807  0.02676  1.0000
  Fe  Fe10      1.0  0.12230  0.70543  0.11137  1.0000
  C   C50       1.0  0.19420  0.84369  0.11746  1.0000
  S   S21       1.0  0.26166  0.01579  0.12258  1.0000
  C   C51       1.0  0.23455  0.89294  0.10534  1.0000
  Fe  Fe11      1.0  0.17998  0.10014  0.10237  1.0000
  H   H80       1.0  0.46353  0.93194  0.16068  1.0000
  C   C52       1.0  0.42394  0.89908  0.14938  1.0000
  H   H81       1.0  0.53664  0.77801  0.05260  1.0000
  H   H82       1.0  0.39395  0.91737  0.10620  1.0000
  H   H83       1.0  0.43388  0.73834  0.10952  1.0000
  C   C53       1.0  0.21332  0.95373  0.14056  1.0000
  H   H84       1.0  0.55744  0.85592  0.07823  1.0000
  H   H85       1.0  0.21028  0.79685  0.08975  1.0000
  H   H86       1.0  0.28063  0.88477  0.06712  1.0000
  C   C54       1.0  0.40704  0.78949  0.12070  1.0000
  N   N3        1.0  0.46151  0.83209  0.13260  1.0000
  H   H87       1.0  0.37673  0.80230  0.07603  1.0000
  H   H88       1.0  0.07271  0.08357  0.31886  1.0000
  S   S22       1.0  0.53834  0.15238  0.22953  1.0000
  H   H89       1.0  0.17863  0.73163  0.27985  1.0000
  H   H90       1.0  0.52936  0.75972  0.18049  1.0000
  H   H91       1.0  0.20663  0.05209  0.32242  1.0000
  H   H92       1.0  0.36632  0.79246  0.16578  1.0000
  C   C55       1.0  0.08019  0.13465  0.32296  1.0000
  C   C56       1.0  0.11106  0.91643  0.19988  1.0000
  C   C57       1.0  0.15173  0.96543  0.18795  1.0000
  H   H93       1.0  0.46714  0.81597  0.23884  1.0000
  C   C58       1.0  0.13208  0.85574  0.16433  1.0000
  H   H94       1.0  0.22036  0.11629  0.27097  1.0000
  H   H95       1.0  0.13547  0.01221  0.21553  1.0000
  H   H96       1.0  0.51293  0.98323  0.31051  1.0000
  C   C59       1.0  0.50309  0.81100  0.19020  1.0000
  H   H97       1.0  0.08693  0.14898  0.27021  1.0000
  C   C60       1.0  0.21073  0.10415  0.32458  1.0000
  S   S23       1.0  0.07832  0.79632  0.17641  1.0000
  H   H98       1.0  0.54712  0.83996  0.19900  1.0000
  H   H99       1.0  0.38338  0.90361  0.19488  1.0000
  H   H100      1.0  0.26017  0.11044  0.35121  1.0000
  N   N4        1.0  0.48147  0.14974  0.48159  1.0000
  H   H101      1.0  0.15348  0.70602  0.46388  1.0000
  C   C61       1.0  0.19903  0.67197  0.43441  1.0000
  H   H102      1.0  0.53784  0.05235  0.45900  1.0000
  H   H103      1.0  0.48607  0.82864  0.43374  1.0000
  C   C62       1.0  0.47986  0.96092  0.34581  1.0000
  S   S24       1.0  0.27733  0.00247  0.44426  1.0000
  H   H104      1.0  0.49417  0.12457  0.37292  1.0000
  H   H105      1.0  0.18020  0.13142  0.46014  1.0000
  H   H106      1.0  0.12585  0.07407  0.43031  1.0000
  H   H107      1.0  0.38639  0.03590  0.34806  1.0000
  C   C63       1.0  0.39352  0.90466  0.43824  1.0000
  C   C64       1.0  0.40831  0.99118  0.36760  1.0000
  C   C65       1.0  0.13263  0.12544  0.43054  1.0000
  S   S25       1.0  0.22466  0.83355  0.47109  1.0000
  C   C66       1.0  0.36545  0.96341  0.41451  1.0000
  C   C67       1.0  0.50793  0.90210  0.36958  1.0000
  C   C68       1.0  0.46440  0.87373  0.41514  1.0000
  H   H108      1.0  0.23894  0.75180  0.34195  1.0000
  C   C69       1.0  0.18724  0.73271  0.33526  1.0000
  N   N5        1.0  0.19042  0.66829  0.36026  1.0000
  H   H109      1.0  0.14117  0.76774  0.36274  1.0000
  N   N6        1.0  0.14410  0.14422  0.36031  1.0000
  H   H110      1.0  0.45476  0.72894  0.46870  1.0000
  H   H111      1.0  0.40164  0.13438  0.41140  1.0000
  H   H112      1.0  0.50702  0.67596  0.40042  1.0000
  C   C70       1.0  0.48937  0.68094  0.45595  1.0000
  C   C71       1.0  0.45417  0.15310  0.41321  1.0000
  H   H113      1.0  0.25132  0.68828  0.44595  1.0000
  H   H114      1.0  0.36126  0.88320  0.47508  1.0000
  H   H115      1.0  0.08290  0.15507  0.45885  1.0000
  H   H116      1.0  0.07439  0.91277  0.41296  1.0000
  C   C72       1.0  0.49637  0.08190  0.49734  1.0000
  H   H117      1.0  0.07345  0.67611  0.37513  1.0000
  S   S26       1.0  0.14010  0.82106  0.62038  1.0000
  Fe  Fe12      1.0  0.25623  0.81050  0.57477  1.0000
  Fe  Fe13      1.0  0.14955  0.92382  0.64553  1.0000
  H   H118      1.0  0.49066  0.72739  0.58505  1.0000
  C   C73       1.0  0.52549  0.67972  0.57044  1.0000
  S   S27       1.0  0.26841  0.91130  0.60874  1.0000
  S   S28       1.0  0.10876  0.95487  0.54750  1.0000
  H   H119      1.0  0.15175  0.05109  0.63874  1.0000
  Fe  Fe14      1.0  0.10962  0.85005  0.51890  1.0000
  S   S29       1.0  0.33569  0.72043  0.58066  1.0000
  Fe  Fe15      1.0  0.22715  0.93556  0.50845  1.0000
  H   H120      1.0  0.51812  0.07744  0.54815  1.0000
  C   C74       1.0  0.28165  0.66691  0.61214  1.0000
  H   H121      1.0  0.57156  0.67565  0.60319  1.0000
  H   H122      1.0  0.44602  0.05945  0.49752  1.0000
  N   N7        1.0  0.55263  0.67260  0.49747  1.0000
  H   H123      1.0  0.56932  0.77126  0.50049  1.0000
  C   C75       1.0  0.14766  0.14648  0.68671  1.0000
  H   H124      1.0  0.45757  0.05251  0.79689  1.0000
  S   S30       1.0  0.10647  0.97599  0.74657  1.0000
  H   H125      1.0  0.26159  0.97015  0.79876  1.0000
  C   C76       1.0  0.11358  0.16021  0.80859  1.0000
  C   C77       1.0  0.11717  0.05659  0.74636  1.0000
  N   N8        1.0  0.35327  0.02087  0.79338  1.0000
  H   H126      1.0  0.38169  0.98492  0.68813  1.0000
  H   H127      1.0  0.13254  0.66841  0.72424  1.0000
  C   C78       1.0  0.10378  0.09601  0.80746  1.0000
  H   H128      1.0  0.29339  0.03502  0.70516  1.0000
  C   C79       1.0  0.31979  0.96463  0.81083  1.0000
  C   C80       1.0  0.35078  0.02813  0.71954  1.0000
  H   H129      1.0  0.37506  0.07049  0.70484  1.0000
  H   H130      1.0  0.22788  0.73389  0.69511  1.0000
  H   H131      1.0  0.33602  0.12288  0.82122  1.0000
  Fe  Fe16      1.0  0.57096  0.82853  0.80649  1.0000
  H   H132      1.0  0.34971  0.91954  0.78200  1.0000
  C   C81       1.0  0.43029  0.01137  0.81015  1.0000
  C   C82       1.0  0.13992  0.08155  0.68599  1.0000
  S   S31       1.0  0.56728  0.78814  0.69866  1.0000
  H   H133      1.0  0.46264  0.96698  0.78207  1.0000
  H   H134      1.0  0.25408  0.08830  0.82131  1.0000
  C   C83       1.0  0.22839  0.68813  0.66650  1.0000
  C   C84       1.0  0.66626  0.49459  0.95709  1.0000
  C   C85       1.0  0.05317  0.40684  0.85932  1.0000
  H   H135      1.0  0.68843  0.59762  0.89369  1.0000
  C   C86       1.0  0.82815  0.26820  0.89475  1.0000
  S   S32       1.0  0.58213  0.31861  0.83588  1.0000
  C   C87       1.0  0.01944  0.40446  0.97987  1.0000
  N   N9        1.0  0.00152  0.38573  0.91009  1.0000
  H   H136      1.0  0.91975  0.46939  0.90720  1.0000
  H   H137      1.0  0.72304  0.50520  0.95746  1.0000
  C   C88       1.0  0.85953  0.21726  0.84678  1.0000
  C   C89       1.0  0.90665  0.65311  0.85922  1.0000
  H   H138      1.0  0.06478  0.29150  0.90663  1.0000
  H   H139      1.0  0.99530  0.29901  0.84780  1.0000
  H   H140      1.0  0.66972  0.44170  0.95907  1.0000
  C   C90       1.0  0.63190  0.58632  0.89352  1.0000
  C   C91       1.0  0.92594  0.41599  0.90094  1.0000
  N   N10       1.0  0.63154  0.51676  0.89609  1.0000
  C   C92       1.0  0.94810  0.65501  0.91569  1.0000
  S   S33       1.0  0.99733  0.58347  0.94051  1.0000
  C   C93       1.0  0.00811  0.31518  0.90001  1.0000
  C   C94       1.0  0.83721  0.26428  0.96412  1.0000
  H   H141      1.0  0.91020  0.40187  0.84922  1.0000
  C   C95       1.0  0.87915  0.20969  0.98544  1.0000
  H   H142      1.0  0.60901  0.60406  0.84671  1.0000
  H   H143      1.0  0.01512  0.45747  0.98923  1.0000
  H   H144      1.0  0.59838  0.61479  0.93805  1.0000
  H   H145      1.0  0.05138  0.45975  0.86586  1.0000
  H   H146      1.0  0.88566  0.40122  0.93890  1.0000
  S   S34       1.0  0.77708  0.33638  0.86784  1.0000
  H   H147      1.0  0.97044  0.29707  0.93731  1.0000
  H   H148      1.0  0.73199  0.48563  0.83185  1.0000
  C   C96       1.0  0.67283  0.48165  0.83379  1.0000
  H   H149      1.0  0.66861  0.42986  0.83111  1.0000
  H   H150      1.0  0.90358  0.60746  0.83186  1.0000
  S   S35       1.0  0.03869  0.24069  0.05478  1.0000
  Fe  Fe17      1.0  0.06430  0.21372  0.15863  1.0000
  H   H151      1.0  0.72769  0.22859  0.08722  1.0000
  S   S36       1.0  0.72221  0.35976  0.13803  1.0000
  S   S37       1.0  0.62089  0.64782  0.07440  1.0000
  S   S38       1.0  0.05685  0.62677  0.12442  1.0000
  C   C97       1.0  0.68192  0.24157  0.12585  1.0000
  C   C98       1.0  0.64029  0.19545  0.14594  1.0000
  H   H152      1.0  0.88645  0.20676  0.03915  1.0000
  H   H153      1.0  0.98160  0.38870  0.01934  1.0000
  H   H154      1.0  0.04114  0.35165  0.14143  1.0000
  C   C99       1.0  0.66533  0.30430  0.15701  1.0000
  H   H155      1.0  0.63497  0.51857  0.00511  1.0000
  H   H156      1.0  0.81203  0.30341  0.00132  1.0000
  C   C100      1.0  0.06299  0.37221  0.18550  1.0000
  C   C101      1.0  0.83558  0.21417  0.25748  1.0000
  H   H157      1.0  0.59252  0.37015  0.22991  1.0000
  S   S39       1.0  0.65325  0.47546  0.30904  1.0000
  S   S40       1.0  0.60539  0.62682  0.27746  1.0000
  C   C102      1.0  0.05495  0.34638  0.24847  1.0000
  H   H158      1.0  0.74746  0.32763  0.27548  1.0000
  H   H159      1.0  0.69519  0.23132  0.30904  1.0000
  S   S41       1.0  0.73986  0.53504  0.18341  1.0000
  Fe  Fe18      1.0  0.70815  0.56116  0.29530  1.0000
  Fe  Fe19      1.0  0.67687  0.45452  0.19538  1.0000
  H   H160      1.0  0.89955  0.64734  0.17380  1.0000
  H   H161      1.0  0.88539  0.23234  0.23784  1.0000
  C   C103      1.0  0.60558  0.32156  0.20614  1.0000
  H   H162      1.0  0.83210  0.63488  0.23916  1.0000
  H   H163      1.0  0.79606  0.22027  0.21784  1.0000
  S   S42       1.0  0.01857  0.27536  0.25376  1.0000
  Fe  Fe20      1.0  0.63210  0.59283  0.16669  1.0000
  C   C104      1.0  0.78617  0.31830  0.31525  1.0000
  H   H164      1.0  0.83625  0.33848  0.29951  1.0000
  C   C105      1.0  0.58272  0.21194  0.19724  1.0000
  N   N11       1.0  0.80408  0.24895  0.32368  1.0000
  S   S43       1.0  0.94684  0.34118  0.48621  1.0000
  C   C106      1.0  0.82719  0.42309  0.45474  1.0000
  H   H165      1.0  0.76040  0.34593  0.36355  1.0000
  H   H166      1.0  0.71191  0.24936  0.39679  1.0000
  H   H167      1.0  0.79532  0.38968  0.47628  1.0000
  C   C107      1.0  0.83272  0.52183  0.40082  1.0000
  H   H168      1.0  0.87356  0.18705  0.38216  1.0000
  H   H169      1.0  0.00300  0.44742  0.42738  1.0000
  C   C108      1.0  0.94421  0.45620  0.42878  1.0000
  C   C109      1.0  0.79180  0.47809  0.42795  1.0000
  H   H170      1.0  0.73277  0.48706  0.42942  1.0000
  C   C110      1.0  0.90891  0.51114  0.40182  1.0000
  S   S44       1.0  0.78924  0.59012  0.36578  1.0000
  C   C111      1.0  0.73690  0.22444  0.34672  1.0000
  H   H171      1.0  0.90845  0.25825  0.36031  1.0000
  H   H172      1.0  0.83521  0.26387  0.42600  1.0000
  H   H173      1.0  0.98911  0.59125  0.48524  1.0000
  C   C112      1.0  0.90354  0.41167  0.45468  1.0000
  H   H174      1.0  0.94091  0.54419  0.37984  1.0000
  C   C113      1.0  0.85770  0.23892  0.37519  1.0000
  H   H175      1.0  0.61938  0.60127  0.42582  1.0000
  C   C114      1.0  0.59634  0.60784  0.48012  1.0000
  H   H176      1.0  0.74905  0.17213  0.35347  1.0000
  H   H177      1.0  0.85456  0.63108  0.49633  1.0000
  H   H178      1.0  0.04088  0.60124  0.55715  1.0000
  H   H179      1.0  0.86100  0.57233  0.63383  1.0000
  C   C115      1.0  0.91137  0.56776  0.59807  1.0000
  H   H180      1.0  0.64327  0.59942  0.51220  1.0000
  H   H181      1.0  0.70108  0.49614  0.60355  1.0000
  H   H182      1.0  0.95779  0.54322  0.62404  1.0000
  H   H183      1.0  0.61166  0.42236  0.61956  1.0000
  S   S45       1.0  0.04443  0.38731  0.64478  1.0000
  C   C116      1.0  0.60054  0.47014  0.64554  1.0000
  S   S46       1.0  0.72085  0.17048  0.56875  1.0000
  C   C117      1.0  0.65058  0.51216  0.63582  1.0000
  C   C118      1.0  0.99266  0.62319  0.53190  1.0000
  N   N12       1.0  0.92476  0.63120  0.57828  1.0000
  Fe  Fe21      1.0  0.05027  0.35280  0.53416  1.0000
  H   H184      1.0  0.90377  0.53541  0.55296  1.0000
  S   S47       1.0  0.70374  0.62254  0.66287  1.0000
  C   C119      1.0  0.86246  0.66139  0.54297  1.0000
  H   H185      1.0  0.85333  0.22086  0.79299  1.0000
  S   S48       1.0  0.70167  0.19547  0.76824  1.0000
  Fe  Fe22      1.0  0.58107  0.21675  0.79745  1.0000
  Fe  Fe23      1.0  0.70072  0.29954  0.79876  1.0000
  H   H186      1.0  0.65150  0.50006  0.78670  1.0000
  C   C120      1.0  0.63655  0.57381  0.66966  1.0000
  H   H187      1.0  0.04032  0.39409  0.80623  1.0000
  Fe  Fe24      1.0  0.67286  0.22733  0.66656  1.0000
  S   S49       1.0  0.68338  0.32974  0.69451  1.0000
  H   H188      1.0  0.97871  0.65102  0.66850  1.0000
  C   C121      1.0  0.01371  0.91778  0.89358  1.0000
  H   H189      1.0  0.61265  0.03592  0.94413  1.0000
  C   C122      1.0  0.90135  0.16262  0.86814  1.0000
  N   N13       1.0  0.72323  0.05197  0.95236  1.0000
  H   H190      1.0  0.81111  0.99773  0.88373  1.0000
  H   H191      1.0  0.68547  0.70373  0.96182  1.0000
  H   H192      1.0  0.99072  0.96946  0.89258  1.0000
  C   C123      1.0  0.71430  0.10821  0.91197  1.0000
  C   C124      1.0  0.91169  0.15936  0.93730  1.0000
  H   H193      1.0  0.76794  0.11714  0.88912  1.0000
  H   H194      1.0  0.76206  0.95028  0.93585  1.0000
  C   C125      1.0  0.65092  0.04338  0.98377  1.0000
  C   C126      1.0  0.87025  0.71037  0.83720  1.0000
  H   H195      1.0  0.91458  0.81655  0.95849  1.0000
  C   C127      1.0  0.95062  0.71418  0.95153  1.0000
  H   H196      1.0  0.96680  0.89123  0.89850  1.0000
  H   H197      1.0  0.68794  0.15275  0.94399  1.0000
  H   H198      1.0  0.72093  0.98481  0.86522  1.0000
  S   S50       1.0  0.96819  0.09371  0.96322  1.0000
  C   C128      1.0  0.75572  0.99388  0.90718  1.0000
  H   H199      1.0  0.74298  0.80129  0.95630  1.0000
  C   C129      1.0  0.91447  0.77131  0.92932  1.0000
  C   C130      1.0  0.87581  0.76974  0.87110  1.0000
  H   H200      1.0  0.67927  0.10108  0.86968  1.0000
  H   H201      1.0  0.05428  0.80720  0.94834  1.0000
  H   H202      1.0  0.97949  0.71593  0.99700  1.0000
  H   H203      1.0  0.82802  0.06552  0.98396  1.0000
  S   S51       1.0  0.83523  0.84212  0.84080  1.0000
  N   N14       1.0  0.06168  0.90737  0.94965  1.0000
  H   H204      1.0  0.04412  0.90135  0.84287  1.0000
  H   H205      1.0  0.92763  0.12398  0.83104  1.0000
  H   H206      1.0  0.97430  0.89412  0.02297  1.0000
  C   C131      1.0  0.77221  0.06236  0.00626  1.0000
  H   H207      1.0  0.65265  0.14703  0.12209  1.0000
  Fe  Fe25      1.0  0.04492  0.13520  0.02833  1.0000
  S   S52       1.0  0.77000  0.89456  0.06132  1.0000
  C   C132      1.0  0.70842  0.80454  0.12834  1.0000
  C   C133      1.0  0.72558  0.78634  0.00529  1.0000
  C   C134      1.0  0.66994  0.71176  0.07171  1.0000
  C   C135      1.0  0.67890  0.74785  0.13180  1.0000
  C   C136      1.0  0.73298  0.82342  0.06522  1.0000
  H   H208      1.0  0.77814  0.02209  0.03940  1.0000
  H   H209      1.0  0.75196  0.10765  0.03910  1.0000
  H   H210      1.0  0.65579  0.00093  0.01432  1.0000
  H   H211      1.0  0.05252  0.91781  0.05967  1.0000
  C   C137      1.0  0.69309  0.73111  0.00847  1.0000
  S   S53       1.0  0.06009  0.10915  0.13452  1.0000
  H   H212      1.0  0.99022  0.97528  0.02151  1.0000
  H   H213      1.0  0.62476  0.08630  0.01826  1.0000
  C   C138      1.0  0.01782  0.92434  0.01631  1.0000
  Fe  Fe26      1.0  0.73322  0.95457  0.15922  1.0000
  H   H214      1.0  0.90798  0.81529  0.23739  1.0000
  H   H215      1.0  0.71148  0.83374  0.17467  1.0000
  C   C139      1.0  0.92700  0.70391  0.29378  1.0000
  H   H216      1.0  0.75525  0.77343  0.26580  1.0000
  C   C140      1.0  0.89188  0.77412  0.20684  1.0000
  S   S54       1.0  0.74222  0.05695  0.19032  1.0000
  H   H217      1.0  0.80713  0.68706  0.17422  1.0000
  Fe  Fe27      1.0  0.65098  0.93737  0.29203  1.0000
  H   H218      1.0  0.94043  0.74432  0.32756  1.0000
  S   S55       1.0  0.76991  0.91898  0.25639  1.0000
  C   C141      1.0  0.80172  0.75653  0.29583  1.0000
  N   N15       1.0  0.86780  0.72659  0.25102  1.0000
  C   C142      1.0  0.85090  0.67160  0.20774  1.0000
  H   H219      1.0  0.84819  0.79373  0.17496  1.0000
  S   S56       1.0  0.61385  0.96722  0.19247  1.0000
  Fe  Fe28      1.0  0.76894  0.02198  0.29114  1.0000
  Fe  Fe29      1.0  0.62486  0.06627  0.23302  1.0000
  H   H220      1.0  0.66046  0.73351  0.18085  1.0000
  H   H221      1.0  0.81221  0.79866  0.32869  1.0000
  H   H222      1.0  0.97798  0.68197  0.26167  1.0000
  H   H223      1.0  0.91101  0.66709  0.32687  1.0000
  H   H224      1.0  0.85126  0.16180  0.26201  1.0000
  H   H225      1.0  0.06286  0.92576  0.23610  1.0000
  H   H226      1.0  0.78273  0.72201  0.33023  1.0000
  H   H227      1.0  0.94007  0.75229  0.17094  1.0000
  H   H228      1.0  0.69420  0.95940  0.46436  1.0000
  H   H229      1.0  0.73470  0.06599  0.46410  1.0000
  C   C143      1.0  0.98073  0.97479  0.38401  1.0000
  S   S57       1.0  0.01867  0.80927  0.47240  1.0000
  H   H230      1.0  0.86856  0.84565  0.44256  1.0000
  H   H231      1.0  0.80689  0.94274  0.39442  1.0000
  C   C144      1.0  0.90022  0.88089  0.42489  1.0000
  C   C145      1.0  0.01583  0.91955  0.40997  1.0000
  C   C146      1.0  0.97545  0.87315  0.43141  1.0000
  C   C147      1.0  0.59904  0.72184  0.48412  1.0000
  S   S58       1.0  0.86264  0.05128  0.34314  1.0000
  S   S59       1.0  0.59728  0.86423  0.34254  1.0000
  S   S60       1.0  0.65257  0.03776  0.33619  1.0000
  C   C148      1.0  0.86529  0.93592  0.39794  1.0000
  H   H232      1.0  0.01203  0.01049  0.36770  1.0000
  C   C149      1.0  0.90555  0.98298  0.37774  1.0000
  H   H233      1.0  0.61758  0.72026  0.42882  1.0000
  H   H234      1.0  0.59412  0.14943  0.44622  1.0000
  H   H235      1.0  0.02873  0.16408  0.34831  1.0000
  H   H236      1.0  0.85893  0.05910  0.55591  1.0000
  H   H237      1.0  0.93447  0.99380  0.54108  1.0000
  C   C150      1.0  0.65716  0.07787  0.62772  1.0000
  C   C151      1.0  0.70686  0.05262  0.50982  1.0000
  C   C152      1.0  0.88275  0.01221  0.57383  1.0000
  H   H238      1.0  0.92266  0.11388  0.64395  1.0000
  S   S61       1.0  0.62722  0.89793  0.57034  1.0000
  H   H239      1.0  0.99935  0.04992  0.62722  1.0000
  C   C153      1.0  0.69318  0.09531  0.56872  1.0000
  H   H240      1.0  0.94291  0.72091  0.62752  1.0000
  C   C154      1.0  0.63758  0.01677  0.62874  1.0000
  H   H241      1.0  0.98036  0.93590  0.63765  1.0000
  C   C155      1.0  0.94607  0.06538  0.65816  1.0000
  C   C156      1.0  0.65137  0.97411  0.56984  1.0000
  H   H242      1.0  0.84395  0.97821  0.56366  1.0000
  H   H243      1.0  0.87062  0.70940  0.52739  1.0000
  H   H244      1.0  0.00388  0.67028  0.51583  1.0000
  C   C157      1.0  0.68461  0.99242  0.51005  1.0000
  C   C158      1.0  0.93247  0.67264  0.64027  1.0000
  N   N16       1.0  0.89555  0.01890  0.64706  1.0000
  H   H245      1.0  0.64874  0.71499  0.51274  1.0000
  H   H246      1.0  0.81034  0.66824  0.57649  1.0000
  H   H247      1.0  0.89034  0.91989  0.66159  1.0000
  H   H248      1.0  0.83288  0.04856  0.74370  1.0000
  H   H249      1.0  0.93938  0.95922  0.72293  1.0000
  H   H250      1.0  0.95823  0.07057  0.71259  1.0000
  Fe  Fe30      1.0  0.64148  0.85686  0.67037  1.0000
  S   S62       1.0  0.66752  0.75509  0.82493  1.0000
  Fe  Fe31      1.0  0.66982  0.72177  0.71402  1.0000
  C   C159      1.0  0.82527  0.04254  0.68825  1.0000
  Fe  Fe32      1.0  0.73533  0.82655  0.78866  1.0000
  S   S63       1.0  0.74412  0.78824  0.67920  1.0000
  H   H251      1.0  0.64533  0.11085  0.67310  1.0000
  H   H252      1.0  0.61064  0.00309  0.67467  1.0000
  S   S64       1.0  0.63875  0.90280  0.77725  1.0000
  H   H253      1.0  0.83868  0.70863  0.79350  1.0000
  H   H254      1.0  0.79959  0.09003  0.67322  1.0000
  H   H255      1.0  0.78562  0.00876  0.68115  1.0000
  C   C160      1.0  0.92773  0.95574  0.66825  1.0000
  H   H256      1.0  0.88199  0.67970  0.67610  1.0000
