data_image0
_chemical_formula_structural       NH11C3HCHCFeSC3H3CSCH3FeS3H4CFeC3HCS3HFeHFeCH3C2H2CHSFeHNCHC3H8NHC3H2SC2H3CSH2C3FeH4CH2S2HCHSHSCFeH2SFeNCH2CHCSHC2HCHNH2CH2CH5C2H2NH2FeHCHCSHC2SCHCHCH5CH4C3SCHC2SHCHCH2SFeSCH3CHCSHSHC5FeH2SH3NHCHCHC2HCHCHCSHSHCNHSCHSH3CFeCFeHCH2SCHCH5C2H2CH2CNHCH3CHCSCHCSHC3SHSHSHNCFeH2C3FeH8CH6CHS2CHCH2C2SH3C3HFeNC2H2SH4CFeH2SFeSC2S2Fe2SCFeH2CH2CSCHCH2CHSCH2C2H2NHFeSCSCFe2SH2CSHSH2C2H2SC4FeH6CH3SC2HSHFeCSFeSCH2FeH3C3H2FeHSHC2H2NSCHCH4CH3C3NHCH2CFeH2CHCH5SCH2C2SHFeH3S3HCHC2NHCNCH3CH5
_chemical_formula_sum              "N16 H256 C160 Fe32 S64"
_cell_length_a       25.5908
_cell_length_b       22.2958
_cell_length_c       27.9452
_cell_angle_alpha    90.6631
_cell_angle_beta     88.6474
_cell_angle_gamma    90.5721

_space_group_name_H-M_alt    "P 1"
_space_group_IT_number       1

loop_
  _space_group_symop_operation_xyz
  'x, y, z'

loop_
  _atom_site_type_symbol
  _atom_site_label
  _atom_site_symmetry_multiplicity
  _atom_site_fract_x
  _atom_site_fract_y
  _atom_site_fract_z
  _atom_site_occupancy
  N   N1        1.0  0.30463  0.41113  0.16595  1.0000
  H   H1        1.0  0.30036  0.38648  0.09145  1.0000
  H   H2        1.0  0.32271  0.34449  0.21792  1.0000
  H   H3        1.0  0.15655  0.51699  0.11925  1.0000
  H   H4        1.0  0.22562  0.41951  0.14265  1.0000
  H   H5        1.0  0.10226  0.45133  0.17160  1.0000
  H   H6        1.0  0.29852  0.49004  0.12312  1.0000
  H   H7        1.0  0.32088  0.42002  0.24086  1.0000
  H   H8        1.0  0.22419  0.59974  0.24303  1.0000
  H   H9        1.0  0.14312  0.62975  0.10083  1.0000
  H   H10       1.0  0.36327  0.37625  0.11682  1.0000
  H   H11       1.0  0.31067  0.32494  0.13076  1.0000
  C   C1        1.0  0.31819  0.47436  0.15572  1.0000
  C   C2        1.0  0.15999  0.52056  0.15751  1.0000
  C   C3        1.0  0.12862  0.48395  0.18723  1.0000
  H   H12       1.0  0.47656  0.49926  0.07080  1.0000
  C   C4        1.0  0.32046  0.37299  0.12456  1.0000
  H   H13       1.0  0.23424  0.43386  0.20536  1.0000
  C   C5        1.0  0.16550  0.53186  0.25688  1.0000
  Fe  Fe1       1.0  0.24624  0.57171  0.06458  1.0000
  S   S1        1.0  0.24079  0.60129  0.14162  1.0000
  C   C6        1.0  0.13268  0.48820  0.23701  1.0000
  C   C7        1.0  0.19607  0.56063  0.17752  1.0000
  C   C8        1.0  0.19754  0.56754  0.22724  1.0000
  H   H14       1.0  0.30579  0.50477  0.18574  1.0000
  H   H15       1.0  0.36101  0.48076  0.14970  1.0000
  H   H16       1.0  0.23573  0.35836  0.18250  1.0000
  C   C9        1.0  0.24759  0.40540  0.17448  1.0000
  S   S2        1.0  0.09843  0.43745  0.27401  1.0000
  C   C10       1.0  0.33215  0.39199  0.20904  1.0000
  H   H17       1.0  0.37533  0.39584  0.20390  1.0000
  H   H18       1.0  0.38416  0.46885  0.06100  1.0000
  H   H19       1.0  0.16665  0.53808  0.29515  1.0000
  Fe  Fe2       1.0  0.20064  0.40027  0.42322  1.0000
  S   S3        1.0  0.12139  0.36941  0.40067  1.0000
  S   S4        1.0  0.26298  0.33070  0.42848  1.0000
  S   S5        1.0  0.19864  0.62717  0.42613  1.0000
  H   H20       1.0  0.35019  0.26322  0.45799  1.0000
  H   H21       1.0  0.50749  0.20502  0.50107  1.0000
  H   H22       1.0  0.38187  0.23735  0.53775  1.0000
  H   H23       1.0  0.23711  0.20989  0.46378  1.0000
  C   C11       1.0  0.34863  0.26645  0.53497  1.0000
  Fe  Fe3       1.0  0.12544  0.44610  0.34970  1.0000
  C   C12       1.0  0.33088  0.28142  0.48974  1.0000
  C   C13       1.0  0.28815  0.31940  0.48547  1.0000
  C   C14       1.0  0.26427  0.34407  0.52667  1.0000
  H   H24       1.0  0.23156  0.37367  0.52358  1.0000
  C   C15       1.0  0.11263  0.65640  0.48136  1.0000
  S   S6        1.0  0.20778  0.47086  0.36721  1.0000
  S   S7        1.0  0.08809  0.51169  0.40087  1.0000
  S   S8        1.0  0.17122  0.46336  0.48067  1.0000
  H   H25       1.0  0.31105  0.17299  0.41279  1.0000
  Fe  Fe4       1.0  0.09201  0.43733  0.45406  1.0000
  H   H26       1.0  0.11060  0.60955  0.49098  1.0000
  Fe  Fe5       1.0  0.17038  0.53168  0.42226  1.0000
  C   C16       1.0  0.53313  0.18671  0.47359  1.0000
  H   H27       1.0  0.11514  0.22986  0.53397  1.0000
  H   H28       1.0  0.16907  0.28163  0.53667  1.0000
  H   H29       1.0  0.10655  0.30692  0.51797  1.0000
  C   C17       1.0  0.23691  0.16586  0.48210  1.0000
  C   C18       1.0  0.12623  0.27685  0.54332  1.0000
  H   H30       1.0  0.26306  0.17012  0.51328  1.0000
  H   H31       1.0  0.26346  0.34743  0.60408  1.0000
  C   C19       1.0  0.32372  0.28929  0.57624  1.0000
  H   H32       1.0  0.51511  0.47505  0.64102  1.0000
  S   S9        1.0  0.34232  0.26452  0.63257  1.0000
  Fe  Fe6       1.0  0.38584  0.17933  0.61928  1.0000
  H   H33       1.0  0.16797  0.36350  0.59853  1.0000
  N   N2        1.0  0.53316  0.27682  0.72828  1.0000
  C   C20       1.0  0.48074  0.24865  0.72581  1.0000
  H   H34       1.0  0.53514  0.29730  0.65320  1.0000
  C   C21       1.0  0.52791  0.33998  0.74411  1.0000
  C   C22       1.0  0.14018  0.25225  0.62593  1.0000
  C   C23       1.0  0.56522  0.24443  0.76274  1.0000
  H   H35       1.0  0.51749  0.53234  0.71742  1.0000
  H   H36       1.0  0.50619  0.36662  0.71773  1.0000
  H   H37       1.0  0.48336  0.20101  0.71389  1.0000
  H   H38       1.0  0.45573  0.27205  0.69984  1.0000
  H   H39       1.0  0.50693  0.34361  0.77931  1.0000
  H   H40       1.0  0.18332  0.25677  0.62033  1.0000
  H   H41       1.0  0.46005  0.24961  0.76125  1.0000
  H   H42       1.0  0.12937  0.20426  0.61999  1.0000
  N   N3        1.0  0.11162  0.29163  0.59357  1.0000
  H   H43       1.0  0.11467  0.36779  0.64147  1.0000
  C   C24       1.0  0.54805  0.47049  0.66428  1.0000
  C   C25       1.0  0.54936  0.50283  0.70745  1.0000
  C   C26       1.0  0.55886  0.27445  0.68037  1.0000
  H   H44       1.0  0.56457  0.22743  0.66777  1.0000
  H   H45       1.0  0.13113  0.26311  0.66419  1.0000
  S   S10       1.0  0.46869  0.17682  0.59241  1.0000
  C   C27       1.0  0.28216  0.32909  0.57213  1.0000
  C   C28       1.0  0.12536  0.35496  0.60393  1.0000
  H   H46       1.0  0.56957  0.19634  0.75258  1.0000
  H   H47       1.0  0.10464  0.38600  0.58007  1.0000
  H   H48       1.0  0.56688  0.36161  0.74839  1.0000
  C   C29       1.0  0.44030  0.37600  0.97792  1.0000
  S   S11       1.0  0.33525  0.39159  0.99141  1.0000
  H   H49       1.0  0.43015  0.34202  0.95167  1.0000
  H   H50       1.0  0.52310  0.37058  0.96292  1.0000
  C   C30       1.0  0.49277  0.39272  0.98378  1.0000
  C   C31       1.0  0.40089  0.40502  0.00456  1.0000
  C   C32       1.0  0.50570  0.43817  0.01645  1.0000
  Fe  Fe7       1.0  0.28925  0.47681  0.99652  1.0000
  H   H51       1.0  0.42931  0.46630  0.84880  1.0000
  H   H52       1.0  0.40849  0.58499  0.94146  1.0000
  H   H53       1.0  0.37621  0.52925  0.90580  1.0000
  H   H54       1.0  0.40990  0.57259  0.83072  1.0000
  C   C33       1.0  0.44612  0.58564  0.84967  1.0000
  H   H55       1.0  0.53978  0.56458  0.88675  1.0000
  H   H56       1.0  0.42040  0.50754  0.95127  1.0000
  S   S12       1.0  0.21460  0.48341  0.03920  1.0000
  S   S13       1.0  0.10301  0.52451  0.95615  1.0000
  H   H57       1.0  0.43986  0.63151  0.86449  1.0000
  C   C34       1.0  0.50578  0.56243  0.91229  1.0000
  H   H58       1.0  0.47458  0.44933  0.89463  1.0000
  S   S14       1.0  0.25771  0.52115  0.93175  1.0000
  H   H59       1.0  0.54695  0.19284  0.96813  1.0000
  S   S15       1.0  0.21259  0.62599  0.00614  1.0000
  C   C35       1.0  0.41374  0.54103  0.92307  1.0000
  Fe  Fe8       1.0  0.18607  0.53673  0.97767  1.0000
  H   H60       1.0  0.50112  0.60788  0.92878  1.0000
  H   H61       1.0  0.51580  0.53103  0.94129  1.0000
  S   S16       1.0  0.32401  0.56090  0.02714  1.0000
  Fe  Fe9       1.0  0.28713  0.60635  0.96564  1.0000
  N   N4        1.0  0.45774  0.54291  0.88794  1.0000
  C   C36       1.0  0.46522  0.48251  0.86676  1.0000
  H   H62       1.0  0.47883  0.58831  0.82268  1.0000
  H   H63       1.0  0.49786  0.48236  0.83972  1.0000
  C   C37       1.0  0.41420  0.44793  0.03917  1.0000
  H   H64       1.0  0.12070  0.64901  0.93356  1.0000
  C   C38       1.0  0.08595  0.64565  0.95625  1.0000
  S   S17       1.0  0.56981  0.46559  0.01957  1.0000
  H   H65       1.0  0.56047  0.64313  0.03479  1.0000
  C   C39       1.0  0.56909  0.18330  0.93548  1.0000
  C   C40       1.0  0.46656  0.46460  0.04508  1.0000
  H   H66       1.0  0.54787  0.24643  0.79960  1.0000
  C   C41       1.0  0.17745  0.74439  0.09906  1.0000
  H   H67       1.0  0.20914  0.71229  0.10657  1.0000
  N   N5        1.0  0.12615  0.72208  0.11707  1.0000
  H   H68       1.0  0.18809  0.78796  0.11620  1.0000
  H   H69       1.0  0.15974  0.68281  0.17906  1.0000
  C   C42       1.0  0.12784  0.71363  0.16941  1.0000
  H   H70       1.0  0.13454  0.75679  0.18883  1.0000
  H   H71       1.0  0.44517  0.71567  0.05339  1.0000
  C   C43       1.0  0.08558  0.76615  0.10618  1.0000
  H   H72       1.0  0.09269  0.80995  0.12449  1.0000
  H   H73       1.0  0.08409  0.77456  0.06702  1.0000
  H   H74       1.0  0.09063  0.69395  0.18367  1.0000
  H   H75       1.0  0.17754  0.75080  0.05960  1.0000
  H   H76       1.0  0.11218  0.66888  0.05399  1.0000
  C   C44       1.0  0.11349  0.66424  0.09345  1.0000
  C   C45       1.0  0.15326  0.73704  0.43614  1.0000
  H   H77       1.0  0.18249  0.75241  0.41035  1.0000
  H   H78       1.0  0.20643  0.69822  0.53070  1.0000
  N   N6        1.0  0.25387  0.11726  0.44904  1.0000
  H   H79       1.0  0.26516  0.02180  0.45074  1.0000
  H   H80       1.0  0.33571  0.13218  0.46206  1.0000
  Fe  Fe10      1.0  0.44066  0.10522  0.54188  1.0000
  H   H81       1.0  0.53832  0.07554  0.38935  1.0000
  C   C46       1.0  0.21875  0.11459  0.40777  1.0000
  H   H82       1.0  0.12222  0.82522  0.44963  1.0000
  C   C47       1.0  0.30805  0.12947  0.43193  1.0000
  S   S18       1.0  0.46133  0.09538  0.46388  1.0000
  H   H83       1.0  0.21082  0.04840  0.48662  1.0000
  C   C48       1.0  0.55011  0.11460  0.40991  1.0000
  C   C49       1.0  0.25146  0.05933  0.47428  1.0000
  S   S19       1.0  0.11342  0.95586  0.46985  1.0000
  C   C50       1.0  0.07723  0.85957  0.33851  1.0000
  H   H84       1.0  0.21949  0.15766  0.38792  1.0000
  C   C51       1.0  0.51810  0.13565  0.44764  1.0000
  H   H85       1.0  0.27610  0.06009  0.50653  1.0000
  C   C52       1.0  0.11913  0.77825  0.45827  1.0000
  H   H86       1.0  0.57160  0.03042  0.52262  1.0000
  H   H87       1.0  0.23022  0.07826  0.38204  1.0000
  H   H88       1.0  0.27549  0.71158  0.53159  1.0000
  H   H89       1.0  0.17751  0.10556  0.41949  1.0000
  H   H90       1.0  0.32253  0.09368  0.40704  1.0000
  C   C53       1.0  0.23687  0.73411  0.53285  1.0000
  H   H91       1.0  0.23431  0.76139  0.49990  1.0000
  H   H92       1.0  0.08793  0.86485  0.37551  1.0000
  H   H93       1.0  0.19661  0.15773  0.49628  1.0000
  H   H94       1.0  0.17351  0.82891  0.54430  1.0000
  C   C54       1.0  0.15051  0.67624  0.44815  1.0000
  C   C55       1.0  0.07917  0.90889  0.30805  1.0000
  C   C56       1.0  0.07913  0.69783  0.50411  1.0000
  S   S20       1.0  0.09152  0.98066  0.33144  1.0000
  C   C57       1.0  0.08267  0.75885  0.49290  1.0000
  H   H95       1.0  0.26846  0.84950  0.54757  1.0000
  C   C58       1.0  0.23284  0.73298  0.61916  1.0000
  C   C59       1.0  0.41051  0.00422  0.78839  1.0000
  S   S21       1.0  0.11572  0.10219  0.55072  1.0000
  H   H96       1.0  0.17078  0.82855  0.60860  1.0000
  C   C60       1.0  0.16538  0.06619  0.58108  1.0000
  H   H97       1.0  0.22729  0.75960  0.65285  1.0000
  C   C61       1.0  0.27113  0.81803  0.57806  1.0000
  H   H98       1.0  0.13466  0.97719  0.56867  1.0000
  H   H99       1.0  0.27147  0.71064  0.62063  1.0000
  S   S22       1.0  0.39579  0.11050  0.67595  1.0000
  Fe  Fe11      1.0  0.47627  0.10106  0.64352  1.0000
  S   S23       1.0  0.54850  0.10032  0.68695  1.0000
  C   C62       1.0  0.53842  0.92518  0.72173  1.0000
  H   H100      1.0  0.27997  0.09733  0.63557  1.0000
  H   H101      1.0  0.20548  0.14827  0.60008  1.0000
  H   H102      1.0  0.41336  0.95572  0.77872  1.0000
  C   C63       1.0  0.52895  0.98061  0.70056  1.0000
  H   H103      1.0  0.51194  0.88775  0.71602  1.0000
  C   C64       1.0  0.16679  0.00353  0.58233  1.0000
  S   S24       1.0  0.31151  0.97377  0.63074  1.0000
  H   H104      1.0  0.49518  0.98566  0.67863  1.0000
  S   S25       1.0  0.45491  0.02869  0.59101  1.0000
  H   H105      1.0  0.21235  0.92655  0.59922  1.0000
  C   C65       1.0  0.20597  0.09992  0.60089  1.0000
  C   C66       1.0  0.24892  0.07099  0.61998  1.0000
  C   C67       1.0  0.21048  0.97470  0.60029  1.0000
  C   C68       1.0  0.25242  0.00848  0.61762  1.0000
  C   C69       1.0  0.56212  0.02954  0.70940  1.0000
  Fe  Fe12      1.0  0.37314  0.04468  0.61865  1.0000
  H   H106      1.0  0.26854  0.84532  0.61167  1.0000
  H   H107      1.0  0.42757  0.02978  0.75769  1.0000
  S   S26       1.0  0.35705  0.11437  0.56415  1.0000
  H   H108      1.0  0.56522  0.11014  0.58265  1.0000
  H   H109      1.0  0.36827  0.01542  0.79168  1.0000
  H   H110      1.0  0.31081  0.79804  0.57633  1.0000
  N   N7        1.0  0.22969  0.77136  0.57657  1.0000
  H   H111      1.0  0.20216  0.69716  0.61895  1.0000
  C   C70       1.0  0.17781  0.80002  0.57621  1.0000
  H   H112      1.0  0.14566  0.76600  0.57524  1.0000
  C   C71       1.0  0.39311  0.69853  0.99509  1.0000
  H   H113      1.0  0.36336  0.67798  0.01760  1.0000
  C   C72       1.0  0.38513  0.70488  0.94606  1.0000
  C   C73       1.0  0.43935  0.72012  0.01537  1.0000
  H   H114      1.0  0.39148  0.09533  0.85065  1.0000
  C   C74       1.0  0.42308  0.73378  0.91754  1.0000
  H   H115      1.0  0.49940  0.77497  0.91508  1.0000
  C   C75       1.0  0.47740  0.74865  0.98672  1.0000
  H   H116      1.0  0.41710  0.73881  0.87960  1.0000
  C   C76       1.0  0.46948  0.75483  0.93770  1.0000
  S   S27       1.0  0.53715  0.06666  0.94712  1.0000
  H   H117      1.0  0.49943  0.95563  0.81604  1.0000
  S   S28       1.0  0.53455  0.77679  0.01239  1.0000
  H   H118      1.0  0.43584  0.99187  0.90693  1.0000
  C   C77       1.0  0.43313  0.08263  0.84499  1.0000
  N   N8        1.0  0.43821  0.01814  0.83308  1.0000
  H   H119      1.0  0.41968  0.93306  0.86524  1.0000
  S   S29       1.0  0.52917  0.89673  0.90957  1.0000
  C   C78       1.0  0.41568  0.98203  0.87269  1.0000
  H   H120      1.0  0.51596  0.01183  0.85941  1.0000
  S   S30       1.0  0.33017  0.67283  0.91902  1.0000
  H   H121      1.0  0.45407  0.09438  0.87844  1.0000
  H   H122      1.0  0.37340  0.99139  0.87874  1.0000
  H   H123      1.0  0.45009  0.11110  0.81596  1.0000
  C   C79       1.0  0.49401  0.00361  0.82622  1.0000
  Fe  Fe13      1.0  0.57459  0.97648  0.93534  1.0000
  C   C80       1.0  0.56952  0.12492  0.91634  1.0000
  Fe  Fe14      1.0  0.57222  0.84525  0.96428  1.0000
  H   H124      1.0  0.51281  0.03160  0.79796  1.0000
  C   C81       1.0  0.64304  0.59845  0.08207  1.0000
  H   H125      1.0  0.88004  0.61556  0.07040  1.0000
  H   H126      1.0  0.89326  0.58573  0.27866  1.0000
  S   S31       1.0  0.81199  0.59384  0.15088  1.0000
  C   C82       1.0  0.80988  0.56842  0.09130  1.0000
  H   H127      1.0  0.67585  0.60369  0.10735  1.0000
  C   C83       1.0  0.93392  0.60393  0.27958  1.0000
  H   H128      1.0  0.73980  0.51526  0.10134  1.0000
  H   H129      1.0  0.94176  0.62709  0.24509  1.0000
  H   H130      1.0  0.03759  0.60215  0.25327  1.0000
  H   H131      1.0  0.64716  0.55370  0.06418  1.0000
  H   H132      1.0  0.60585  0.59728  0.10352  1.0000
  C   C84       1.0  0.76918  0.53102  0.07588  1.0000
  C   C85       1.0  0.84827  0.58760  0.05848  1.0000
  H   H133      1.0  0.97928  0.53333  0.21203  1.0000
  H   H134      1.0  0.92979  0.49187  0.24450  1.0000
  C   C86       1.0  0.96960  0.51208  0.24705  1.0000
  H   H135      1.0  0.07480  0.64628  0.10575  1.0000
  H   H136      1.0  0.99763  0.47489  0.25155  1.0000
  C   C87       1.0  0.02551  0.58265  0.28833  1.0000
  N   N9        1.0  0.97237  0.55609  0.28693  1.0000
  H   H137      1.0  0.05509  0.54877  0.29724  1.0000
  C   C88       1.0  0.86416  0.46410  0.48664  1.0000
  H   H138      1.0  0.88665  0.21138  0.38181  1.0000
  H   H139      1.0  0.98746  0.49235  0.44381  1.0000
  H   H140      1.0  0.01389  0.27067  0.42637  1.0000
  C   C89       1.0  0.90450  0.49008  0.45899  1.0000
  H   H141      1.0  0.77074  0.18778  0.52118  1.0000
  C   C90       1.0  0.93394  0.25630  0.48928  1.0000
  S   S32       1.0  0.78029  0.31012  0.48902  1.0000
  C   C91       1.0  0.61456  0.19189  0.42752  1.0000
  H   H142      1.0  0.89601  0.26975  0.50647  1.0000
  C   C92       1.0  0.91768  0.31619  0.41979  1.0000
  S   S33       1.0  0.03140  0.40363  0.50672  1.0000
  H   H143      1.0  0.89533  0.52217  0.43180  1.0000
  C   C93       1.0  0.96810  0.43123  0.50074  1.0000
  C   C94       1.0  0.95654  0.47323  0.46577  1.0000
  C   C95       1.0  0.96046  0.52581  0.33274  1.0000
  S   S34       1.0  0.79871  0.47980  0.47539  1.0000
  H   H144      1.0  0.91288  0.31683  0.38035  1.0000
  S   S35       1.0  0.66953  0.38110  0.48573  1.0000
  H   H145      1.0  0.92029  0.50619  0.33353  1.0000
  S   S36       1.0  0.67756  0.22181  0.41898  1.0000
  H   H146      1.0  0.73786  0.57681  0.52425  1.0000
  N   N10       1.0  0.93123  0.25574  0.43649  1.0000
  C   C96       1.0  0.87603  0.42295  0.52205  1.0000
  Fe  Fe15      1.0  0.69654  0.28625  0.47814  1.0000
  H   H147      1.0  0.64890  0.53402  0.52078  1.0000
  H   H148      1.0  0.96434  0.28838  0.50191  1.0000
  C   C97       1.0  0.80581  0.16279  0.52712  1.0000
  C   C98       1.0  0.98260  0.23843  0.41561  1.0000
  C   C99       1.0  0.92788  0.40705  0.52942  1.0000
  Fe  Fe16      1.0  0.75203  0.40267  0.50490  1.0000
  H   H149      1.0  0.98835  0.48873  0.33880  1.0000
  H   H150      1.0  0.98202  0.23735  0.37579  1.0000
  H   H151      1.0  0.99410  0.19308  0.42764  1.0000
  H   H152      1.0  0.94862  0.34960  0.42865  1.0000
  H   H153      1.0  0.94349  0.21118  0.50306  1.0000
  H   H154      1.0  0.88053  0.33224  0.43680  1.0000
  H   H155      1.0  0.96343  0.55766  0.36360  1.0000
  H   H156      1.0  0.85195  0.22261  0.43766  1.0000
  C   C100      1.0  0.89093  0.21199  0.42132  1.0000
  H   H157      1.0  0.90079  0.16563  0.43216  1.0000
  H   H158      1.0  0.02814  0.61909  0.31581  1.0000
  H   H159      1.0  0.59274  0.25431  0.48375  1.0000
  H   H160      1.0  0.66095  0.64299  0.53878  1.0000
  H   H161      1.0  0.84529  0.40310  0.54391  1.0000
  H   H162      1.0  0.93553  0.63873  0.30843  1.0000
  C   C101      1.0  0.58128  0.21494  0.46347  1.0000
  H   H163      1.0  0.76387  0.60148  0.58044  1.0000
  S   S37       1.0  0.82131  0.23836  0.60322  1.0000
  S   S38       1.0  0.58477  0.39097  0.59781  1.0000
  C   C102      1.0  0.68489  0.55809  0.63594  1.0000
  H   H164      1.0  0.70124  0.51284  0.64228  1.0000
  C   C103      1.0  0.63142  0.42606  0.68132  1.0000
  H   H165      1.0  0.66302  0.39614  0.67147  1.0000
  H   H166      1.0  0.62209  0.63553  0.59289  1.0000
  C   C104      1.0  0.05474  0.28226  0.60112  1.0000
  C   C105      1.0  0.63221  0.45761  0.72512  1.0000
  S   S39       1.0  0.74057  0.38837  0.58378  1.0000
  H   H167      1.0  0.75454  0.52307  0.56819  1.0000
  H   H168      1.0  0.66477  0.45248  0.74851  1.0000
  H   H169      1.0  0.59797  0.29677  0.68038  1.0000
  C   C106      1.0  0.59099  0.49577  0.73829  1.0000
  C   C107      1.0  0.64991  0.52657  0.56007  1.0000
  C   C108      1.0  0.83738  0.17739  0.56580  1.0000
  H   H170      1.0  0.70947  0.59123  0.65552  1.0000
  Fe  Fe17      1.0  0.65974  0.35923  0.56366  1.0000
  N   N11       1.0  0.68364  0.57118  0.58424  1.0000
  C   C109      1.0  0.58898  0.43213  0.65119  1.0000
  C   C110      1.0  0.66250  0.63185  0.57747  1.0000
  H   H171      1.0  0.04310  0.23491  0.59329  1.0000
  H   H172      1.0  0.64498  0.55904  0.65273  1.0000
  S   S40       1.0  0.67984  0.26205  0.55456  1.0000
  H   H173      1.0  0.60541  0.26396  0.76449  1.0000
  H   H174      1.0  0.04233  0.29264  0.63873  1.0000
  H   H175      1.0  0.03191  0.31162  0.57757  1.0000
  H   H176      1.0  0.60896  0.52765  0.57448  1.0000
  C   C111      1.0  0.73724  0.56819  0.56345  1.0000
  Fe  Fe18      1.0  0.76207  0.29314  0.56621  1.0000
  H   H177      1.0  0.93655  0.37501  0.55686  1.0000
  H   H178      1.0  0.66411  0.48025  0.56518  1.0000
  S   S41       1.0  0.58982  0.53385  0.79346  1.0000
  Fe  Fe19      1.0  0.61714  0.44502  0.95306  1.0000
  S   S42       1.0  0.70798  0.43624  0.84064  1.0000
  C   C112      1.0  0.59926  0.22883  0.91370  1.0000
  C   C113      1.0  0.59843  0.63895  0.01473  1.0000
  S   S43       1.0  0.69146  0.39260  0.95280  1.0000
  S   S44       1.0  0.58892  0.40645  0.88370  1.0000
  Fe  Fe20      1.0  0.72496  0.47226  0.91401  1.0000
  Fe  Fe21      1.0  0.66677  0.36153  0.87984  1.0000
  S   S45       1.0  0.67285  0.26894  0.84803  1.0000
  C   C114      1.0  0.62966  0.21580  0.87270  1.0000
  Fe  Fe22      1.0  0.63163  0.48333  0.84958  1.0000
  H   H179      1.0  0.69660  0.60283  0.99791  1.0000
  H   H180      1.0  0.60042  0.27331  0.92958  1.0000
  C   C115      1.0  0.84610  0.56992  0.01036  1.0000
  H   H181      1.0  0.69352  0.17840  0.94590  1.0000
  H   H182      1.0  0.76246  0.19180  0.94749  1.0000
  C   C116      1.0  0.06797  0.58931  0.97139  1.0000
  S   S46       1.0  0.65225  0.52664  0.91908  1.0000
  C   C117      1.0  0.02279  0.58503  0.00036  1.0000
  H   H183      1.0  0.86992  0.63407  0.91300  1.0000
  C   C118      1.0  0.72967  0.16600  0.96456  1.0000
  H   H184      1.0  0.80342  0.65805  0.91662  1.0000
  H   H185      1.0  0.87700  0.58322  0.98561  1.0000
  C   C119      1.0  0.80423  0.53504  0.99430  1.0000
  H   H186      1.0  0.73365  0.48759  0.01521  1.0000
  S   S47       1.0  0.79939  0.52001  0.93275  1.0000
  C   C120      1.0  0.69256  0.64588  0.01812  1.0000
  H   H187      1.0  0.00869  0.54148  0.01193  1.0000
  H   H188      1.0  0.72520  0.18184  0.00234  1.0000
  C   C121      1.0  0.76590  0.51504  0.02720  1.0000
  C   C122      1.0  0.99661  0.63708  0.01547  1.0000
  H   H189      1.0  0.96225  0.63342  0.03827  1.0000
  H   H190      1.0  0.59876  0.59385  0.99736  1.0000
  N   N12       1.0  0.64322  0.64726  0.04670  1.0000
  H   H191      1.0  0.72719  0.65046  0.04138  1.0000
  Fe  Fe23      1.0  0.95782  0.73742  0.19773  1.0000
  S   S48       1.0  0.85454  0.74574  0.09991  1.0000
  C   C123      1.0  0.92105  0.93507  0.25685  1.0000
  S   S49       1.0  0.87203  0.73576  0.21612  1.0000
  C   C124      1.0  0.84269  0.89499  0.07447  1.0000
  Fe  Fe24      1.0  0.94160  0.74574  0.09146  1.0000
  Fe  Fe25      1.0  0.86819  0.80818  0.16169  1.0000
  S   S50       1.0  0.01587  0.72897  0.25577  1.0000
  H   H192      1.0  0.84086  0.85721  0.27038  1.0000
  H   H193      1.0  0.67175  0.71334  0.09672  1.0000
  C   C125      1.0  0.06642  0.90150  0.25993  1.0000
  S   S51       1.0  0.95419  0.81539  0.14844  1.0000
  H   H194      1.0  0.96214  0.95081  0.26108  1.0000
  S   S52       1.0  0.95308  0.66754  0.13978  1.0000
  H   H195      1.0  0.72597  0.93174  0.12702  1.0000
  H   H196      1.0  0.92884  0.82649  0.29598  1.0000
  C   C126      1.0  0.63889  0.70577  0.07187  1.0000
  C   C127      1.0  0.04856  0.84561  0.24312  1.0000
  H   H197      1.0  0.88185  0.88208  0.08339  1.0000
  H   H198      1.0  0.03817  0.84040  0.20621  1.0000
  S   S53       1.0  0.82006  0.89043  0.17013  1.0000
  C   C128      1.0  0.75502  0.92350  0.09900  1.0000
  C   C129      1.0  0.80535  0.90618  0.11080  1.0000
  C   C130      1.0  0.04422  0.79699  0.27423  1.0000
  C   C131      1.0  0.84289  0.89599  0.29577  1.0000
  Fe  Fe26      1.0  0.86640  0.67316  0.15301  1.0000
  H   H199      1.0  0.81931  0.93242  0.28026  1.0000
  H   H200      1.0  0.89859  0.97226  0.24118  1.0000
  H   H201      1.0  0.92141  0.89780  0.23004  1.0000
  H   H202      1.0  0.04626  0.74970  0.11773  1.0000
  H   H203      1.0  0.60162  0.70895  0.09311  1.0000
  H   H204      1.0  0.06847  0.93950  0.23619  1.0000
  C   C132      1.0  0.74135  0.92666  0.05081  1.0000
  H   H205      1.0  0.63463  0.00301  0.50283  1.0000
  H   H206      1.0  0.87560  0.00477  0.32528  1.0000
  H   H207      1.0  0.88179  0.95269  0.37326  1.0000
  S   S54       1.0  0.04506  0.81072  0.52603  1.0000
  C   C133      1.0  0.89855  0.96606  0.33775  1.0000
  C   C134      1.0  0.59846  0.14256  0.39998  1.0000
  H   H208      1.0  0.96888  0.87885  0.32797  1.0000
  S   S55       1.0  0.99661  0.92027  0.42925  1.0000
  H   H209      1.0  0.82348  0.88225  0.33002  1.0000
  Fe  Fe27      1.0  0.07318  0.03310  0.50709  1.0000
  C   C135      1.0  0.06026  0.80350  0.32151  1.0000
  S   S56       1.0  0.03065  0.06219  0.44240  1.0000
  Fe  Fe28      1.0  0.96712  0.00088  0.46928  1.0000
  S   S57       1.0  0.88416  0.02900  0.46030  1.0000
  C   C136      1.0  0.81946  0.11573  0.49584  1.0000
  H   H210      1.0  0.71601  0.05247  0.53387  1.0000
  H   H211      1.0  0.91103  0.84885  0.35627  1.0000
  Fe  Fe29      1.0  0.04288  0.90292  0.49458  1.0000
  H   H212      1.0  0.05103  0.68274  0.53102  1.0000
  H   H213      1.0  0.62390  0.12510  0.37177  1.0000
  H   H214      1.0  0.69151  0.12372  0.51590  1.0000
  C   C137      1.0  0.86555  0.08405  0.50239  1.0000
  C   C138      1.0  0.61314  0.04358  0.51536  1.0000
  C   C139      1.0  0.92774  0.86512  0.32160  1.0000
  H   H215      1.0  0.79498  0.10500  0.46578  1.0000
  H   H216      1.0  0.93924  0.98226  0.34375  1.0000
  Fe  Fe30      1.0  0.06405  0.97965  0.40794  1.0000
  H   H217      1.0  0.05776  0.76585  0.34564  1.0000
  S   S58       1.0  0.00673  0.97831  0.53735  1.0000
  H   H218      1.0  0.61330  0.07556  0.48509  1.0000
  C   C140      1.0  0.69109  0.09078  0.54567  1.0000
  C   C141      1.0  0.89738  0.09871  0.54095  1.0000
  H   H219      1.0  0.60527  0.15800  0.54587  1.0000
  H   H220      1.0  0.93313  0.07463  0.54615  1.0000
  N   N13       1.0  0.89752  0.91557  0.30299  1.0000
  S   S59       1.0  0.58615  0.85376  0.78585  1.0000
  C   C142      1.0  0.60532  0.02279  0.73847  1.0000
  H   H221      1.0  0.63115  0.06053  0.74526  1.0000
  C   C143      1.0  0.61426  0.96769  0.76019  1.0000
  H   H222      1.0  0.66163  0.98683  0.58656  1.0000
  H   H223      1.0  0.68701  0.66673  0.59520  1.0000
  H   H224      1.0  0.90750  0.15611  0.60290  1.0000
  H   H225      1.0  0.62268  0.14478  0.60665  1.0000
  C   C144      1.0  0.88292  0.14486  0.57306  1.0000
  H   H226      1.0  0.71021  0.11284  0.57678  1.0000
  H   H227      1.0  0.65514  0.04659  0.63000  1.0000
  H   H228      1.0  0.64748  0.96272  0.78287  1.0000
  C   C145      1.0  0.58032  0.91918  0.75255  1.0000
  C   C146      1.0  0.63809  0.02678  0.59699  1.0000
  C   C147      1.0  0.60627  0.12336  0.57402  1.0000
  N   N14       1.0  0.63721  0.07102  0.55802  1.0000
  H   H229      1.0  0.59787  0.01094  0.60686  1.0000
  C   C148      1.0  0.84334  0.67118  0.90361  1.0000
  H   H230      1.0  0.79457  0.03686  0.98542  1.0000
  H   H231      1.0  0.86957  0.76906  0.99431  1.0000
  C   C149      1.0  0.05881  0.69760  0.97025  1.0000
  Fe  Fe31      1.0  0.59960  0.87881  0.86255  1.0000
  H   H232      1.0  0.68761  0.08095  0.02196  1.0000
  H   H233      1.0  0.65071  0.14845  0.82004  1.0000
  C   C150      1.0  0.62782  0.15834  0.85220  1.0000
  H   H234      1.0  0.59873  0.67321  0.98604  1.0000
  C   C151      1.0  0.82562  0.77736  0.90940  1.0000
  H   H235      1.0  0.83806  0.82176  0.92413  1.0000
  H   H236      1.0  0.69877  0.01919  0.98141  1.0000
  H   H237      1.0  0.75217  0.03288  0.90743  1.0000
  H   H238      1.0  0.91798  0.74635  0.86897  1.0000
  H   H239      1.0  0.78455  0.76956  0.92206  1.0000
  S   S60       1.0  0.98339  0.75872  0.02083  1.0000
  C   C152      1.0  0.91475  0.74247  0.90857  1.0000
  H   H240      1.0  0.77818  0.10587  0.89297  1.0000
  H   H241      1.0  0.82546  0.78117  0.86974  1.0000
  C   C153      1.0  0.69340  0.06855  0.98352  1.0000
  C   C154      1.0  0.82925  0.89922  0.02637  1.0000
  S   S61       1.0  0.63915  0.82038  0.91513  1.0000
  H   H242      1.0  0.82130  0.10970  0.97222  1.0000
  Fe  Fe32      1.0  0.67507  0.90631  0.94168  1.0000
  H   H243      1.0  0.85821  0.88990  0.99851  1.0000
  H   H244      1.0  0.65651  0.07878  0.96510  1.0000
  H   H245      1.0  0.88606  0.69141  0.99046  1.0000
  S   S62       1.0  0.76130  0.91362  0.95399  1.0000
  S   S63       1.0  0.61091  0.92696  0.99520  1.0000
  S   S64       1.0  0.64213  0.96259  0.88428  1.0000
  H   H246      1.0  0.78280  0.09824  0.02613  1.0000
  C   C155      1.0  0.77813  0.91335  0.01447  1.0000
  H   H247      1.0  0.59679  0.06900  0.85770  1.0000
  C   C156      1.0  0.78645  0.08583  0.98751  1.0000
  C   C157      1.0  0.85839  0.72541  0.97743  1.0000
  N   N15       1.0  0.86048  0.72905  0.92469  1.0000
  H   H248      1.0  0.69438  0.68274  0.99161  1.0000
  C   C158      1.0  0.59772  0.11305  0.87390  1.0000
  N   N16       1.0  0.73861  0.10063  0.96163  1.0000
  C   C159      1.0  0.01471  0.69334  0.00064  1.0000
  H   H249      1.0  0.92934  0.78521  0.92474  1.0000
  H   H250      1.0  0.81861  0.71310  0.99114  1.0000
  H   H251      1.0  0.84274  0.67286  0.86387  1.0000
  C   C160      1.0  0.74488  0.08196  0.91090  1.0000
  H   H252      1.0  0.70922  0.09163  0.89048  1.0000
  H   H253      1.0  0.94200  0.70666  0.91947  1.0000
  H   H254      1.0  0.70222  0.93876  0.04220  1.0000
  H   H255      1.0  0.07285  0.74107  0.95852  1.0000
  H   H256      1.0  0.63917  0.74358  0.04613  1.0000
