data_image0
_chemical_formula_structural       H2SCFeH2SCNH2SCFeHCHC2H2SH2FeHCHCS2HC2FeSH2CS2HFeSCH2NSCHCFeSFeH2C2H2CH3CH2C2HCH3CH4CH2CH2CHCH4CSNC2H6CSCHC2FeCFeHS2C6H2C2SH2CHCH2CHNC3H3CSCFeCH2SH3SCH3FeSHCFeSCSH2SCFeCH2C3HFeH7CH3C3HSC2NH2CHC2H3CH2C3SH2S2H4CH3Fe2NH2CH2SCSCH3FeH2CHCNSFeHSFeSHC2H4CNCH3SHCFeCSCNH4CSHCH5SCH4C3H2SCHCHFeSFeSCFeNFeHSHCH2SHC2HC2H2CHSH2CHCHS2C2SH3CHCH3CNCH2FeH3CH2CHFeHNHC2HSH2C2S2H2CH3CHC2HCHC2H3NH5CHCHC2HSNHCHCH2C2H4CSH3CH2CHCNHSCHC5HCH6CH3CNHCSHC3S2HCHSH2CHFeCSFeH2CH3CH2C2FeS2H2FeCHFeS2H2FeSHCHC3SCSH8CH3
_chemical_formula_sum              "H256 S64 C160 Fe32 N16"
_cell_length_a       22.8949
_cell_length_b       20.8138
_cell_length_c       31.3317
_cell_angle_alpha    89.5868
_cell_angle_beta     90.1274
_cell_angle_gamma    90.1724

_space_group_name_H-M_alt    "P 1"
_space_group_IT_number       1

loop_
  _space_group_symop_operation_xyz
  'x, y, z'

loop_
  _atom_site_type_symbol
  _atom_site_label
  _atom_site_symmetry_multiplicity
  _atom_site_fract_x
  _atom_site_fract_y
  _atom_site_fract_z
  _atom_site_occupancy
  H   H1        1.0  0.20518  0.52499  0.19934  1.0000
  H   H2        1.0  0.23875  0.27631  0.21261  1.0000
  S   S1        1.0  0.17444  0.22132  0.13460  1.0000
  C   C1        1.0  0.14337  0.59777  0.18078  1.0000
  Fe  Fe1       1.0  0.13280  0.31209  0.15605  1.0000
  H   H3        1.0  0.17011  0.50589  0.30887  1.0000
  H   H4        1.0  0.31073  0.27146  0.23544  1.0000
  S   S2        1.0  0.11581  0.55430  0.13750  1.0000
  C   C2        1.0  0.18651  0.57099  0.20703  1.0000
  N   N1        1.0  0.25297  0.19405  0.25298  1.0000
  H   H5        1.0  0.26667  0.25545  0.30706  1.0000
  H   H6        1.0  0.28986  0.21974  0.19209  1.0000
  S   S3        1.0  0.17075  0.39335  0.19358  1.0000
  C   C3        1.0  0.30130  0.15027  0.26445  1.0000
  Fe  Fe2       1.0  0.10316  0.45299  0.15968  1.0000
  H   H7        1.0  0.21562  0.19131  0.31594  1.0000
  C   C4        1.0  0.27415  0.24260  0.22199  1.0000
  H   H8        1.0  0.16731  0.18799  0.22514  1.0000
  C   C5        1.0  0.23153  0.22656  0.29170  1.0000
  C   C6        1.0  0.20715  0.60478  0.24254  1.0000
  H   H9        1.0  0.24149  0.58454  0.26215  1.0000
  H   H10       1.0  0.14652  0.58357  0.32629  1.0000
  S   S4        1.0  0.11705  0.37426  0.30944  1.0000
  H   H11       1.0  0.19505  0.26007  0.28420  1.0000
  H   H12       1.0  0.33672  0.17589  0.28194  1.0000
  Fe  Fe3       1.0  0.09819  0.37331  0.23933  1.0000
  H   H13       1.0  0.10668  0.51245  0.34177  1.0000
  C   C7        1.0  0.15124  0.53240  0.33632  1.0000
  H   H14       1.0  0.26812  0.52539  0.33892  1.0000
  C   C8        1.0  0.20489  0.15665  0.23366  1.0000
  S   S5        1.0  0.19107  0.42201  0.50768  1.0000
  S   S6        1.0  0.37736  0.21271  0.58878  1.0000
  H   H15       1.0  0.48519  0.38213  0.41216  1.0000
  C   C9        1.0  0.24546  0.16322  0.41209  1.0000
  C   C10       1.0  0.19650  0.46203  0.55642  1.0000
  Fe  Fe4       1.0  0.27898  0.37798  0.49620  1.0000
  S   S7        1.0  0.48164  0.46605  0.48503  1.0000
  H   H16       1.0  0.15832  0.61452  0.40193  1.0000
  H   H17       1.0  0.18845  0.55806  0.43990  1.0000
  C   C11       1.0  0.54464  0.24291  0.55932  1.0000
  S   S8        1.0  0.42493  0.28862  0.47912  1.0000
  S   S9        1.0  0.33320  0.39514  0.43768  1.0000
  H   H18       1.0  0.56859  0.34176  0.36966  1.0000
  Fe  Fe5       1.0  0.34403  0.28805  0.43868  1.0000
  S   S10       1.0  0.34100  0.22702  0.38008  1.0000
  C   C12       1.0  0.57607  0.37647  0.39465  1.0000
  H   H19       1.0  0.23099  0.20905  0.42395  1.0000
  H   H20       1.0  0.55352  0.20305  0.58226  1.0000
  N   N2        1.0  0.18824  0.52605  0.37484  1.0000
  S   S11       1.0  0.35367  0.38686  0.54228  1.0000
  C   C13       1.0  0.24788  0.49492  0.56672  1.0000
  H   H21       1.0  0.21321  0.42857  0.36175  1.0000
  C   C14       1.0  0.53873  0.44343  0.45136  1.0000
  Fe  Fe6       1.0  0.36339  0.28105  0.53418  1.0000
  S   S12       1.0  0.28360  0.27075  0.49365  1.0000
  Fe  Fe7       1.0  0.40865  0.39450  0.48352  1.0000
  H   H22       1.0  0.14513  0.30235  0.55961  1.0000
  H   H23       1.0  0.11726  0.54435  0.41774  1.0000
  C   C15       1.0  0.52896  0.39920  0.41869  1.0000
  C   C16       1.0  0.19261  0.45761  0.38731  1.0000
  H   H24       1.0  0.55573  0.30593  0.48402  1.0000
  H   H25       1.0  0.14882  0.43634  0.39369  1.0000
  C   C17       1.0  0.16189  0.56253  0.41018  1.0000
  H   H26       1.0  0.21888  0.45133  0.41691  1.0000
  H   H27       1.0  0.52191  0.28172  0.57702  1.0000
  H   H28       1.0  0.13036  0.24011  0.52185  1.0000
  C   C18       1.0  0.11943  0.25746  0.55436  1.0000
  H   H29       1.0  0.28204  0.50056  0.54319  1.0000
  H   H30       1.0  0.51335  0.22446  0.53507  1.0000
  C   C19       1.0  0.58553  0.32080  0.51025  1.0000
  C   C20       1.0  0.15160  0.45695  0.58646  1.0000
  H   H31       1.0  0.27648  0.54743  0.39395  1.0000
  C   C21       1.0  0.29695  0.15928  0.38824  1.0000
  H   H32       1.0  0.13486  0.22104  0.57799  1.0000
  H   H33       1.0  0.11148  0.43256  0.57841  1.0000
  H   H34       1.0  0.56414  0.36115  0.52734  1.0000
  C   C22       1.0  0.24722  0.55168  0.36564  1.0000
  H   H35       1.0  0.28508  0.30582  0.59543  1.0000
  H   H36       1.0  0.24551  0.60335  0.35613  1.0000
  H   H37       1.0  0.11509  0.60846  0.58603  1.0000
  H   H38       1.0  0.27637  0.14559  0.55049  1.0000
  C   C23       1.0  0.20722  0.21172  0.66359  1.0000
  H   H39       1.0  0.29280  0.44154  0.78254  1.0000
  H   H40       1.0  0.30734  0.36000  0.67838  1.0000
  C   C24       1.0  0.28879  0.38614  0.70604  1.0000
  H   H41       1.0  0.28968  0.36896  0.81417  1.0000
  H   H42       1.0  0.30603  0.43620  0.70472  1.0000
  C   C25       1.0  0.27985  0.28806  0.74707  1.0000
  H   H43       1.0  0.24067  0.38895  0.70114  1.0000
  C   C26       1.0  0.17781  0.20456  0.80860  1.0000
  H   H44       1.0  0.16008  0.17559  0.78309  1.0000
  H   H45       1.0  0.38021  0.32746  0.78243  1.0000
  H   H46       1.0  0.23165  0.28781  0.74210  1.0000
  H   H47       1.0  0.22948  0.39098  0.78094  1.0000
  C   C27       1.0  0.15670  0.26706  0.81541  1.0000
  S   S13       1.0  0.14015  0.21061  0.68982  1.0000
  N   N3        1.0  0.30350  0.35419  0.74695  1.0000
  C   C28       1.0  0.27792  0.39055  0.78269  1.0000
  C   C29       1.0  0.36765  0.35187  0.75201  1.0000
  H   H48       1.0  0.28884  0.26288  0.77784  1.0000
  H   H49       1.0  0.12283  0.28641  0.79512  1.0000
  H   H50       1.0  0.29936  0.25876  0.72124  1.0000
  H   H51       1.0  0.38836  0.32508  0.72540  1.0000
  H   H52       1.0  0.29593  0.54440  0.61578  1.0000
  H   H53       1.0  0.38689  0.40107  0.75235  1.0000
  C   C30       1.0  0.22163  0.17932  0.83504  1.0000
  S   S14       1.0  0.11810  0.41072  0.74124  1.0000
  C   C31       1.0  0.17837  0.30342  0.84932  1.0000
  H   H54       1.0  0.12595  0.47476  0.65138  1.0000
  C   C32       1.0  0.22233  0.26504  0.63860  1.0000
  C   C33       1.0  0.15973  0.48103  0.62770  1.0000
  Fe  Fe8       1.0  0.14823  0.51216  0.73142  1.0000
  C   C34       1.0  0.21205  0.51189  0.63838  1.0000
  Fe  Fe9       1.0  0.11244  0.43820  0.81007  1.0000
  H   H55       1.0  0.19279  0.30543  0.63594  1.0000
  S   S15       1.0  0.22370  0.53949  0.69018  1.0000
  S   S16       1.0  0.15120  0.53627  0.80068  1.0000
  C   C35       1.0  0.31380  0.21409  0.61986  1.0000
  C   C36       1.0  0.27483  0.26542  0.61586  1.0000
  C   C37       1.0  0.24578  0.16003  0.66752  1.0000
  C   C38       1.0  0.29979  0.16197  0.64647  1.0000
  C   C39       1.0  0.25561  0.52002  0.60767  1.0000
  C   C40       1.0  0.25029  0.29063  0.08399  1.0000
  H   H56       1.0  0.10351  0.24638  0.91271  1.0000
  H   H57       1.0  0.21086  0.25710  0.97170  1.0000
  C   C41       1.0  0.16836  0.27944  0.98045  1.0000
  C   C42       1.0  0.25230  0.17465  0.07881  1.0000
  S   S17       1.0  0.35990  0.24205  0.98817  1.0000
  H   H58       1.0  0.24188  0.30781  0.90005  1.0000
  H   H59       1.0  0.23302  0.33376  0.09827  1.0000
  C   C43       1.0  0.29219  0.29508  0.05130  1.0000
  H   H60       1.0  0.28118  0.19996  0.88657  1.0000
  C   C44       1.0  0.13354  0.17843  0.00910  1.0000
  H   H61       1.0  0.15383  0.18289  0.92491  1.0000
  H   H62       1.0  0.13755  0.19561  0.04251  1.0000
  C   C45       1.0  0.31302  0.23908  0.03206  1.0000
  H   H63       1.0  0.30731  0.34161  0.04023  1.0000
  N   N4        1.0  0.12012  0.23206  0.97958  1.0000
  C   C46       1.0  0.29342  0.17926  0.04622  1.0000
  C   C47       1.0  0.24582  0.21768  0.86703  1.0000
  C   C48       1.0  0.22377  0.27917  0.87449  1.0000
  H   H64       1.0  0.17381  0.30046  0.01276  1.0000
  H   H65       1.0  0.16047  0.31989  0.95767  1.0000
  H   H66       1.0  0.17561  0.15507  0.00092  1.0000
  C   C49       1.0  0.11322  0.20697  0.93586  1.0000
  S   S18       1.0  0.14618  0.37637  0.86365  1.0000
  C   C50       1.0  0.23014  0.23015  0.09726  1.0000
  Fe  Fe10      1.0  0.35745  0.14385  0.95911  1.0000
  C   C51       1.0  0.14007  0.69124  0.22644  1.0000
  H   H67       1.0  0.48753  0.00703  0.11302  1.0000
  H   H68       1.0  0.10464  0.06356  0.19136  1.0000
  S   S19       1.0  0.20994  0.70630  0.29707  1.0000
  H   H69       1.0  0.11355  0.92005  0.12159  1.0000
  H   H70       1.0  0.18882  0.11864  0.25582  1.0000
  H   H71       1.0  0.32136  0.06374  0.13680  1.0000
  S   S20       1.0  0.25629  0.88564  0.30998  1.0000
  C   C52       1.0  0.24250  0.92524  0.14100  1.0000
  H   H72       1.0  0.12023  0.73623  0.23479  1.0000
  H   H73       1.0  0.22256  0.89253  0.16345  1.0000
  H   H74       1.0  0.14691  0.99385  0.17880  1.0000
  Fe  Fe11      1.0  0.21814  0.94028  0.25454  1.0000
  S   S21       1.0  0.27191  0.00129  0.20974  1.0000
  H   H75       1.0  0.54798  0.90991  0.10809  1.0000
  C   C53       1.0  0.27115  0.98049  0.15544  1.0000
  Fe  Fe12      1.0  0.18849  0.81137  0.29341  1.0000
  S   S22       1.0  0.15528  0.86335  0.23498  1.0000
  C   C54       1.0  0.29887  0.02103  0.12594  1.0000
  S   S23       1.0  0.15269  0.99137  0.29472  1.0000
  H   H76       1.0  0.28578  0.11008  0.28513  1.0000
  H   H77       1.0  0.32076  0.12796  0.23560  1.0000
  S   S24       1.0  0.12030  0.85036  0.33711  1.0000
  C   C55       1.0  0.10172  0.01313  0.18000  1.0000
  Fe  Fe13      1.0  0.09324  0.90928  0.28079  1.0000
  C   C56       1.0  0.18403  0.66501  0.25224  1.0000
  H   H78       1.0  0.11156  0.09820  0.11631  1.0000
  H   H79       1.0  0.44987  0.90429  0.14337  1.0000
  C   C57       1.0  0.12040  0.65817  0.19030  1.0000
  C   C58       1.0  0.43074  0.89330  0.11153  1.0000
  C   C59       1.0  0.10685  0.04721  0.10634  1.0000
  H   H80       1.0  0.42876  0.84011  0.10835  1.0000
  Fe  Fe14      1.0  0.18434  0.92954  0.34831  1.0000
  H   H81       1.0  0.21945  0.13248  0.20390  1.0000
  H   H82       1.0  0.35332  0.09743  0.35219  1.0000
  H   H83       1.0  0.38485  0.91108  0.11157  1.0000
  H   H84       1.0  0.22515  0.08545  0.56775  1.0000
  H   H85       1.0  0.22774  0.11023  0.51259  1.0000
  H   H86       1.0  0.14338  0.72090  0.56829  1.0000
  H   H87       1.0  0.37261  0.03565  0.49127  1.0000
  C   C60       1.0  0.10867  0.73735  0.59047  1.0000
  H   H88       1.0  0.29214  0.00052  0.36344  1.0000
  H   H89       1.0  0.23842  0.97155  0.54358  1.0000
  H   H90       1.0  0.29982  0.95175  0.51036  1.0000
  C   C61       1.0  0.33874  0.07213  0.49863  1.0000
  C   C62       1.0  0.22856  0.04932  0.40197  1.0000
  C   C63       1.0  0.31347  0.10065  0.37059  1.0000
  H   H91       1.0  0.36160  0.11725  0.50807  1.0000
  S   S25       1.0  0.18676  0.98028  0.41088  1.0000
  C   C64       1.0  0.27896  0.04583  0.37704  1.0000
  C   C65       1.0  0.25495  0.09979  0.54127  1.0000
  N   N5        1.0  0.29863  0.04942  0.53250  1.0000
  H   H92       1.0  0.17168  0.11111  0.43772  1.0000
  H   H93       1.0  0.24152  0.99964  0.48948  1.0000
  C   C66       1.0  0.21157  0.10801  0.41941  1.0000
  H   H94       1.0  0.31490  0.08255  0.46846  1.0000
  C   C67       1.0  0.26835  0.99042  0.51846  1.0000
  C   C68       1.0  0.33247  0.03532  0.57167  1.0000
  H   H95       1.0  0.36411  0.99564  0.56660  1.0000
  H   H96       1.0  0.35808  0.07797  0.58199  1.0000
  H   H97       1.0  0.30342  0.02113  0.59864  1.0000
  C   C69       1.0  0.14723  0.76425  0.74610  1.0000
  H   H98       1.0  0.13973  0.67014  0.77436  1.0000
  H   H99       1.0  0.19129  0.75641  0.73489  1.0000
  C   C70       1.0  0.11812  0.71541  0.76857  1.0000
  C   C71       1.0  0.15497  0.68294  0.64968  1.0000
  C   C72       1.0  0.11924  0.82257  0.73758  1.0000
  S   S26       1.0  0.24471  0.09947  0.82942  1.0000
  H   H100      1.0  0.14898  0.65164  0.67834  1.0000
  H   H101      1.0  0.23452  0.11928  0.68760  1.0000
  S   S27       1.0  0.12280  0.03561  0.64012  1.0000
  S   S28       1.0  0.15458  0.88047  0.70591  1.0000
  H   H102      1.0  0.12591  0.82651  0.83591  1.0000
  H   H103      1.0  0.33009  0.12261  0.65035  1.0000
  H   H104      1.0  0.17208  0.72997  0.66095  1.0000
  H   H105      1.0  0.20966  0.94169  0.82900  1.0000
  C   C73       1.0  0.16160  0.94868  0.82613  1.0000
  H   H106      1.0  0.18956  0.66045  0.62987  1.0000
  H   H107      1.0  0.14745  0.92633  0.79566  1.0000
  H   H108      1.0  0.15405  0.00131  0.82307  1.0000
  Fe  Fe15      1.0  0.09938  0.96746  0.69345  1.0000
  Fe  Fe16      1.0  0.10029  0.11249  0.68695  1.0000
  N   N6        1.0  0.09973  0.69080  0.62571  1.0000
  H   H109      1.0  0.12208  0.78530  0.60287  1.0000
  H   H110      1.0  0.39178  0.92505  0.03348  1.0000
  C   C74       1.0  0.23976  0.91200  0.09713  1.0000
  H   H111      1.0  0.18821  0.84047  0.86935  1.0000
  H   H112      1.0  0.49130  0.01775  0.05627  1.0000
  S   S29       1.0  0.26892  0.10040  0.94854  1.0000
  C   C75       1.0  0.55549  0.98711  0.94885  1.0000
  S   S30       1.0  0.26113  0.93793  0.01271  1.0000
  C   C76       1.0  0.55351  0.03965  0.97634  1.0000
  H   H113      1.0  0.12791  0.93273  0.93132  1.0000
  H   H114      1.0  0.14515  0.00469  0.90154  1.0000
  H   H115      1.0  0.52070  0.07638  0.97192  1.0000
  Fe  Fe17      1.0  0.30429  0.07627  0.88431  1.0000
  H   H116      1.0  0.19873  0.94276  0.90783  1.0000
  H   H117      1.0  0.15176  0.02754  0.10256  1.0000
  C   C77       1.0  0.43769  0.90757  0.03517  1.0000
  H   H118      1.0  0.21710  0.86951  0.08608  1.0000
  C   C78       1.0  0.26631  0.95353  0.06762  1.0000
  N   N7        1.0  0.13004  0.92103  0.86310  1.0000
  S   S31       1.0  0.33605  0.97914  0.90514  1.0000
  Fe  Fe18      1.0  0.30926  0.00863  0.97087  1.0000
  H   H119      1.0  0.31789  0.03875  0.05975  1.0000
  S   S32       1.0  0.50454  0.97912  0.90733  1.0000
  Fe  Fe19      1.0  0.41999  0.03034  0.92055  1.0000
  S   S33       1.0  0.39507  0.05388  0.98777  1.0000
  H   H120      1.0  0.30973  0.13647  0.03154  1.0000
  C   C79       1.0  0.14086  0.85108  0.86543  1.0000
  C   C80       1.0  0.15124  0.95166  0.90270  1.0000
  H   H121      1.0  0.43643  0.85483  0.02968  1.0000
  H   H122      1.0  0.11725  0.82840  0.89270  1.0000
  H   H123      1.0  0.46208  0.92979  0.00804  1.0000
  H   H124      1.0  0.42165  0.01418  0.08224  1.0000
  C   C81       1.0  0.29663  0.00731  0.08222  1.0000
  N   N8        1.0  0.46505  0.92313  0.07666  1.0000
  C   C82       1.0  0.46640  0.99357  0.08232  1.0000
  H   H125      1.0  0.55215  0.91948  0.05137  1.0000
  H   H126      1.0  0.09878  0.14089  0.00838  1.0000
  H   H127      1.0  0.23635  0.12803  0.08889  1.0000
  S   S34       1.0  0.39083  0.12515  0.89320  1.0000
  H   H128      1.0  0.52638  0.84508  0.07372  1.0000
  C   C83       1.0  0.52545  0.89817  0.07757  1.0000
  Fe  Fe20      1.0  0.00840  0.35276  0.16824  1.0000
  C   C84       1.0  0.89445  0.34806  0.29677  1.0000
  S   S35       1.0  0.92021  0.31419  0.15021  1.0000
  C   C85       1.0  0.06103  0.25880  0.31635  1.0000
  N   N9        1.0  0.85282  0.30204  0.27764  1.0000
  H   H129      1.0  0.99585  0.60644  0.14846  1.0000
  H   H130      1.0  0.91976  0.32535  0.32313  1.0000
  H   H131      1.0  0.84948  0.35482  0.21847  1.0000
  H   H132      1.0  0.90923  0.22048  0.28566  1.0000
  C   C86       1.0  0.81171  0.27872  0.31064  1.0000
  S   S36       1.0  0.06617  0.28664  0.20516  1.0000
  H   H133      1.0  0.78681  0.31907  0.32493  1.0000
  C   C87       1.0  0.88537  0.24702  0.26007  1.0000
  H   H134      1.0  0.91814  0.26308  0.23602  1.0000
  H   H135      1.0  0.78960  0.30055  0.22674  1.0000
  H   H136      1.0  0.79300  0.37468  0.25575  1.0000
  H   H137      1.0  0.87148  0.39038  0.31024  1.0000
  H   H138      1.0  0.92655  0.36604  0.27280  1.0000
  S   S37       1.0  0.03232  0.43797  0.20812  1.0000
  C   C88       1.0  0.81973  0.33445  0.24316  1.0000
  H   H139      1.0  0.77924  0.24444  0.29724  1.0000
  H   H140      1.0  0.83500  0.25360  0.33711  1.0000
  H   H141      1.0  0.85564  0.21233  0.24402  1.0000
  H   H142      1.0  0.00856  0.17288  0.31796  1.0000
  C   C89       1.0  0.95416  0.61849  0.13183  1.0000
  C   C90       1.0  0.01880  0.21764  0.33369  1.0000
  C   C91       1.0  0.93291  0.24799  0.11689  1.0000
  H   H143      1.0  0.91953  0.58674  0.14525  1.0000
  H   H144      1.0  0.02633  0.25362  0.12347  1.0000
  S   S38       1.0  0.07333  0.37395  0.11659  1.0000
  C   C92       1.0  0.07195  0.31842  0.33506  1.0000
  H   H145      1.0  0.08464  0.24458  0.28827  1.0000
  C   C93       1.0  0.99035  0.22973  0.10838  1.0000
  H   H146      1.0  0.84204  0.22709  0.10491  1.0000
  Fe  Fe21      1.0  0.79177  0.25945  0.50179  1.0000
  S   S39       1.0  0.76948  0.36357  0.49298  1.0000
  Fe  Fe22      1.0  0.87093  0.25537  0.42505  1.0000
  S   S40       1.0  0.85703  0.35909  0.40864  1.0000
  C   C94       1.0  0.64001  0.28862  0.57268  1.0000
  Fe  Fe23      1.0  0.86533  0.37538  0.47910  1.0000
  N   N10       1.0  0.05611  0.26921  0.55876  1.0000
  Fe  Fe24      1.0  0.76324  0.33815  0.42341  1.0000
  H   H147      1.0  0.68654  0.45796  0.44320  1.0000
  S   S41       1.0  0.88803  0.27337  0.49385  1.0000
  H   H148      1.0  0.63834  0.17305  0.53543  1.0000
  C   C95       1.0  0.63299  0.39675  0.40400  1.0000
  H   H149      1.0  0.03020  0.19024  0.51872  1.0000
  H   H150      1.0  0.62582  0.34023  0.49504  1.0000
  S   S42       1.0  0.92552  0.45006  0.50623  1.0000
  H   H151      1.0  0.97766  0.30816  0.41846  1.0000
  C   C96       1.0  0.04368  0.29259  0.60225  1.0000
  C   C97       1.0  0.98773  0.23619  0.36986  1.0000
  H   H152      1.0  0.03706  0.17037  0.57439  1.0000
  C   C98       1.0  0.00114  0.29403  0.39015  1.0000
  C   C99       1.0  0.02346  0.20877  0.55155  1.0000
  H   H153      1.0  0.03966  0.63191  0.59001  1.0000
  H   H154      1.0  0.59651  0.19655  0.48908  1.0000
  C   C100      1.0  0.93296  0.43810  0.56142  1.0000
  H   H155      1.0  0.05183  0.38121  0.38741  1.0000
  S   S43       1.0  0.76493  0.19523  0.55589  1.0000
  H   H156      1.0  0.04457  0.30126  0.49372  1.0000
  H   H157      1.0  0.86137  0.37094  0.56568  1.0000
  C   C101      1.0  0.64264  0.44172  0.43621  1.0000
  H   H158      1.0  0.00694  0.50162  0.56723  1.0000
  C   C102      1.0  0.03779  0.31803  0.52698  1.0000
  H   H159      1.0  0.97558  0.21561  0.55584  1.0000
  S   S44       1.0  0.69208  0.36268  0.37715  1.0000
  S   S45       1.0  0.77642  0.23270  0.43374  1.0000
  C   C103      1.0  0.89590  0.39521  0.58281  1.0000
  C   C104      1.0  0.04343  0.33519  0.37276  1.0000
  S   S46       1.0  0.92795  0.19076  0.38669  1.0000
  H   H160      1.0  0.06262  0.36373  0.53054  1.0000
  H   H161      1.0  0.99085  0.33002  0.53045  1.0000
  H   H162      1.0  0.66708  0.23119  0.49864  1.0000
  C   C105      1.0  0.97772  0.46916  0.58388  1.0000
  H   H163      1.0  0.68143  0.30710  0.55853  1.0000
  C   C106      1.0  0.62624  0.21444  0.51453  1.0000
  H   H164      1.0  0.60294  0.49998  0.48477  1.0000
  H   H165      1.0  0.62089  0.32797  0.59196  1.0000
  H   H166      1.0  0.65230  0.24865  0.59473  1.0000
  C   C107      1.0  0.59537  0.46576  0.45950  1.0000
  N   N11       1.0  0.59906  0.26663  0.53925  1.0000
  C   C108      1.0  0.94769  0.41498  0.64917  1.0000
  H   H167      1.0  0.01516  0.31220  0.82328  1.0000
  H   H168      1.0  0.95645  0.34384  0.79109  1.0000
  Fe  Fe25      1.0  0.05907  0.56862  0.79034  1.0000
  H   H169      1.0  0.90701  0.27493  0.73813  1.0000
  H   H170      1.0  0.91112  0.17525  0.81044  1.0000
  H   H171      1.0  0.04431  0.19895  0.81607  1.0000
  C   C109      1.0  0.92861  0.22435  0.81615  1.0000
  H   H172      1.0  0.05450  0.21024  0.75958  1.0000
  H   H173      1.0  0.07500  0.59178  0.63366  1.0000
  C   C110      1.0  0.94420  0.24074  0.74062  1.0000
  H   H174      1.0  0.02470  0.32426  0.76692  1.0000
  Fe  Fe26      1.0  0.02822  0.45265  0.73659  1.0000
  H   H175      1.0  0.89075  0.25778  0.81604  1.0000
  N   N12       1.0  0.97184  0.24285  0.78330  1.0000
  H   H176      1.0  0.97580  0.25424  0.71506  1.0000
  C   C111      1.0  0.90310  0.38390  0.62663  1.0000
  C   C112      1.0  0.99298  0.30861  0.79172  1.0000
  H   H177      1.0  0.87415  0.35079  0.64302  1.0000
  S   S47       1.0  0.95681  0.39786  0.70364  1.0000
  H   H178      1.0  0.94823  0.22470  0.84866  1.0000
  H   H179      1.0  0.01996  0.48091  0.64489  1.0000
  C   C113      1.0  0.98518  0.45743  0.62775  1.0000
  C   C114      1.0  0.02176  0.19807  0.78463  1.0000
  S   S48       1.0  0.05892  0.55176  0.71996  1.0000
  S   S49       1.0  0.01984  0.47267  0.80662  1.0000
  H   H180      1.0  0.92719  0.19190  0.73326  1.0000
  H   H181      1.0  0.05718  0.25704  0.62702  1.0000
  C   C115      1.0  0.08151  0.62814  0.60801  1.0000
  H   H182      1.0  0.00758  0.14792  0.77892  1.0000
  H   H183      1.0  0.06705  0.33832  0.60903  1.0000
  H   H184      1.0  0.99622  0.30156  0.60668  1.0000
  C   C116      1.0  0.88672  0.21375  0.09824  1.0000
  H   H185      1.0  0.02791  0.22884  0.99267  1.0000
  C   C117      1.0  0.06529  0.26331  0.99298  1.0000
  C   C118      1.0  0.00203  0.18003  0.08015  1.0000
  H   H186      1.0  0.01573  0.52856  0.09044  1.0000
  C   C119      1.0  0.95641  0.14663  0.06082  1.0000
  H   H187      1.0  0.05407  0.30438  0.97155  1.0000
  C   C120      1.0  0.97385  0.54329  0.07529  1.0000
  C   C121      1.0  0.89850  0.16246  0.07044  1.0000
  H   H188      1.0  0.86730  0.59684  0.07563  1.0000
  H   H189      1.0  0.04664  0.16692  0.07399  1.0000
  H   H190      1.0  0.97855  0.53591  0.04033  1.0000
  N   N13       1.0  0.95956  0.61082  0.08512  1.0000
  H   H191      1.0  0.06889  0.28231  0.02606  1.0000
  H   H192      1.0  0.90648  0.62358  0.02895  1.0000
  H   H193      1.0  0.07704  0.17124  0.93409  1.0000
  H   H194      1.0  0.93953  0.50970  0.08721  1.0000
  H   H195      1.0  0.04926  0.64195  0.08428  1.0000
  C   C122      1.0  0.90370  0.62804  0.06427  1.0000
  H   H196      1.0  0.01677  0.03002  0.33958  1.0000
  C   C123      1.0  0.97901  0.80663  0.17711  1.0000
  H   H197      1.0  0.00243  0.76572  0.16482  1.0000
  C   C124      1.0  0.01312  0.03601  0.14115  1.0000
  C   C125      1.0  0.99872  0.83696  0.21428  1.0000
  H   H198      1.0  0.03635  0.81839  0.23106  1.0000
  S   S50       1.0  0.99976  0.93601  0.27112  1.0000
  N   N14       1.0  0.07280  0.00960  0.13787  1.0000
  H   H199      1.0  0.04385  0.91236  0.14710  1.0000
  C   C126      1.0  0.97021  0.89176  0.22912  1.0000
  H   H200      1.0  0.89729  0.95567  0.22027  1.0000
  C   C127      1.0  0.92008  0.91402  0.20836  1.0000
  H   H201      1.0  0.86174  0.90110  0.15525  1.0000
  H   H202      1.0  0.98697  0.00977  0.16563  1.0000
  C   C128      1.0  0.90055  0.88389  0.17117  1.0000
  C   C129      1.0  0.93099  0.83147  0.15484  1.0000
  H   H203      1.0  0.98906  0.03194  0.11038  1.0000
  H   H204      1.0  0.94291  0.66890  0.14023  1.0000
  H   H205      1.0  0.07735  0.98484  0.20445  1.0000
  H   H206      1.0  0.01381  0.08766  0.15009  1.0000
  C   C130      1.0  0.06942  0.94192  0.12411  1.0000
  S   S51       1.0  0.91202  0.79994  0.10515  1.0000
  H   H207      1.0  0.08650  0.67872  0.17044  1.0000
  H   H208      1.0  0.92278  0.99640  0.37040  1.0000
  H   H209      1.0  0.83300  0.14102  0.48875  1.0000
  C   C131      1.0  0.89352  0.07690  0.59622  1.0000
  H   H210      1.0  0.99667  0.90210  0.42158  1.0000
  H   H211      1.0  0.92657  0.06057  0.40824  1.0000
  C   C132      1.0  0.84957  0.12324  0.51883  1.0000
  H   H212      1.0  0.01457  0.07316  0.45405  1.0000
  C   C133      1.0  0.84195  0.11328  0.59556  1.0000
  N   N15       1.0  0.00369  0.00224  0.40511  1.0000
  H   H213      1.0  0.91683  0.97976  0.42676  1.0000
  S   S52       1.0  0.99369  0.03093  0.55933  1.0000
  C   C134      1.0  0.02461  0.02182  0.44772  1.0000
  H   H214      1.0  0.92387  0.07874  0.49009  1.0000
  C   C135      1.0  0.82106  0.13821  0.55689  1.0000
  C   C136      1.0  0.92419  0.06601  0.55832  1.0000
  C   C137      1.0  0.90108  0.08743  0.51952  1.0000
  C   C138      1.0  0.03203  0.04277  0.37221  1.0000
  C   C139      1.0  0.01871  0.93423  0.39806  1.0000
  H   H215      1.0  0.08036  0.03734  0.37295  1.0000
  C   C140      1.0  0.93963  0.00998  0.40250  1.0000
  H   H216      1.0  0.00386  0.99242  0.47335  1.0000
  H   H217      1.0  0.07274  0.01586  0.45084  1.0000
  H   H218      1.0  0.02217  0.09441  0.37721  1.0000
  H   H219      1.0  0.06654  0.92650  0.40144  1.0000
  H   H220      1.0  0.00550  0.91842  0.36551  1.0000
  H   H221      1.0  0.06788  0.74430  0.57159  1.0000
  C   C141      1.0  0.05397  0.71511  0.65465  1.0000
  H   H222      1.0  0.71433  0.89612  0.79511  1.0000
  H   H223      1.0  0.04924  0.91007  0.82857  1.0000
  H   H224      1.0  0.01112  0.71973  0.63811  1.0000
  C   C142      1.0  0.91239  0.01970  0.84686  1.0000
  N   N16       1.0  0.70858  0.95872  0.84934  1.0000
  H   H225      1.0  0.99083  0.79291  0.78909  1.0000
  C   C143      1.0  0.06298  0.83316  0.75337  1.0000
  S   S53       1.0  0.02508  0.66404  0.81162  1.0000
  H   H226      1.0  0.06567  0.76327  0.66739  1.0000
  C   C144      1.0  0.64454  0.96657  0.84592  1.0000
  C   C145      1.0  0.03445  0.78489  0.77701  1.0000
  C   C146      1.0  0.06169  0.72557  0.78405  1.0000
  S   S54       1.0  0.08600  0.04499  0.74195  1.0000
  S   S55       1.0  0.00652  0.11614  0.66821  1.0000
  H   H227      1.0  0.88808  0.84114  0.81691  1.0000
  C   C147      1.0  0.91602  0.00082  0.80427  1.0000
  H   H228      1.0  0.90988  0.05826  0.62617  1.0000
  S   S56       1.0  0.00478  0.95822  0.67547  1.0000
  H   H229      1.0  0.70438  0.85561  0.84555  1.0000
  H   H230      1.0  0.78657  0.00744  0.82858  1.0000
  C   C148      1.0  0.91019  0.93600  0.79359  1.0000
  H   H231      1.0  0.04129  0.87837  0.74742  1.0000
  Fe  Fe27      1.0  0.02690  0.03288  0.62635  1.0000
  C   C149      1.0  0.89598  0.89078  0.82537  1.0000
  S   S57       1.0  0.92049  0.05980  0.76464  1.0000
  Fe  Fe28      1.0  0.99330  0.04200  0.71907  1.0000
  H   H232      1.0  0.91317  0.92132  0.76059  1.0000
  H   H233      1.0  0.81988  0.12440  0.62508  1.0000
  C   C150      1.0  0.72590  0.89736  0.82959  1.0000
  H   H234      1.0  0.77381  0.88949  0.83232  1.0000
  H   H235      1.0  0.04752  0.68272  0.68269  1.0000
  H   H236      1.0  0.62992  0.96903  0.81208  1.0000
  C   C151      1.0  0.73816  0.01257  0.82711  1.0000
  H   H237      1.0  0.72584  0.01480  0.79275  1.0000
  H   H238      1.0  0.72687  0.05949  0.84174  1.0000
  C   C152      1.0  0.59893  0.94053  0.95428  1.0000
  C   C153      1.0  0.72602  0.95832  0.89478  1.0000
  Fe  Fe29      1.0  0.85203  0.90490  0.96952  1.0000
  S   S58       1.0  0.79647  0.86457  0.02221  1.0000
  S   S59       1.0  0.97376  0.08534  0.02503  1.0000
  H   H239      1.0  0.70905  0.91507  0.91177  1.0000
  H   H240      1.0  0.59379  0.08668  0.03011  1.0000
  Fe  Fe30      1.0  0.87634  0.87806  0.06269  1.0000
  C   C154      1.0  0.88885  0.91046  0.86768  1.0000
  H   H241      1.0  0.89131  0.67857  0.07111  1.0000
  Fe  Fe31      1.0  0.90434  0.00908  0.02430  1.0000
  S   S60       1.0  0.93341  0.90963  0.00863  1.0000
  S   S61       1.0  0.85467  0.97872  0.08244  1.0000
  H   H242      1.0  0.59953  0.89878  0.93395  1.0000
  H   H243      1.0  0.67459  0.91107  0.99063  1.0000
  Fe  Fe32      1.0  0.77868  0.96796  0.03750  1.0000
  S   S62       1.0  0.82662  0.00766  0.98079  1.0000
  H   H244      1.0  0.89704  0.98920  0.91134  1.0000
  C   C155      1.0  0.59516  0.04576  0.00900  1.0000
  H   H245      1.0  0.99694  0.70485  0.07607  1.0000
  C   C156      1.0  0.06664  0.93269  0.85809  1.0000
  C   C157      1.0  0.90004  0.97424  0.87862  1.0000
  C   C158      1.0  0.63946  0.00001  0.01370  1.0000
  S   S63       1.0  0.85860  0.85785  0.90548  1.0000
  C   C159      1.0  0.64125  0.94728  0.98639  1.0000
  S   S64       1.0  0.69076  0.00779  0.05485  1.0000
  H   H246      1.0  0.77429  0.95749  0.89833  1.0000
  H   H247      1.0  0.62943  0.01115  0.86197  1.0000
  H   H248      1.0  0.01201  0.64922  0.03396  1.0000
  H   H249      1.0  0.86287  0.13627  0.05581  1.0000
  H   H250      1.0  0.70986  0.00154  0.91180  1.0000
  H   H251      1.0  0.04129  0.91230  0.88535  1.0000
  H   H252      1.0  0.05675  0.98493  0.85597  1.0000
  H   H253      1.0  0.04760  0.93757  0.09243  1.0000
  C   C160      1.0  0.00649  0.65353  0.06908  1.0000
  H   H254      1.0  0.91760  0.06969  0.85527  1.0000
  H   H255      1.0  0.62083  0.92578  0.86124  1.0000
  H   H256      1.0  0.08537  0.04680  0.07442  1.0000
