data_DMA
_audit_creation_date              2024-01-25
_audit_creation_method            'Materials Studio'
_symmetry_space_group_name_H-M    'P1'
_symmetry_Int_Tables_number       1
_symmetry_cell_setting            triclinic
loop_
_symmetry_equiv_pos_as_xyz
  x,y,z
_cell_length_a                    20.0000
_cell_length_b                    20.0000
_cell_length_c                    20.0000
_cell_angle_alpha                 90.0000
_cell_angle_beta                  90.0000
_cell_angle_gamma                 90.0000
loop_
_atom_site_label
_atom_site_type_symbol
_atom_site_fract_x
_atom_site_fract_y
_atom_site_fract_z
_atom_site_U_iso_or_equiv
_atom_site_adp_type
_atom_site_occupancy
_atom_site_charge
C1	C	0.000000	-0.063700	-0.014000	0.000000	Uiso	1.000000	-0.213370
H1	H	0.044950	-0.063650	-0.045050	0.000000	Uiso	1.000000	0.150792
H2	H	0.000000	-0.106400	0.020100	0.000000	Uiso	1.000000	0.150792
H3	H	-0.044950	-0.063650	-0.045050	0.000000	Uiso	1.000000	0.150792
C2	C	0.000000	0.063700	-0.014000	0.000000	Uiso	1.000000	-0.213370
H4	H	-0.044950	0.063650	-0.045050	0.000000	Uiso	1.000000	0.150792
H5	H	0.000000	0.106400	0.020100	0.000000	Uiso	1.000000	0.150792
H6	H	0.044950	0.063650	-0.045050	0.000000	Uiso	1.000000	0.150792
N1	N	0.000000	0.000000	0.027300	0.000000	Uiso	1.000000	-0.048386
H7	H	-0.041100	0.000000	0.058400	0.000000	Uiso	1.000000	0.285187
H8	H	0.041100	0.000000	0.058400	0.000000	Uiso	1.000000	0.285187
loop_
_geom_bond_atom_site_label_1
_geom_bond_atom_site_label_2
_geom_bond_distance
_geom_bond_site_symmetry_2
_ccdc_geom_bond_type
C1     H1      1.093   .     S
C1     H2      1.093   .     S
C1     H3      1.093   .     S
C1     N1      1.518   .     S
C2     H4      1.093   .     S
C2     H5      1.093   .     S
C2     H6      1.093   .     S
C2     N1      1.518   .     S
N1     H7      1.031   .     S
N1     H8      1.031   .     S
