data_MBA
_audit_creation_date              2023-02-07
_audit_creation_method            'Materials Studio'
_symmetry_space_group_name_H-M    'P1'
_symmetry_Int_Tables_number       1
_symmetry_cell_setting            triclinic
loop_
_symmetry_equiv_pos_as_xyz
  x,y,z
_cell_length_a                    30.0000
_cell_length_b                    30.0000
_cell_length_c                    30.0000
_cell_angle_alpha                 90.0000
_cell_angle_beta                  90.0000
_cell_angle_gamma                 90.0000
loop_
_atom_site_label
_atom_site_type_symbol
_atom_site_fract_x
_atom_site_fract_y
_atom_site_fract_z
_atom_site_U_iso_or_equiv
_atom_site_adp_type
_atom_site_occupancy
_atom_site_charge
N1	N	-0.024340	-0.040830	0.000000	0.000000	Uiso	1.000000	0.040396
C2	C	-0.012260	-0.067290	-0.041270	0.000000	Uiso	1.000000	-0.238694
C3	C	-0.012260	-0.067290	0.041270	0.000000	Uiso	1.000000	-0.238694
C4	C	-0.074740	-0.036390	0.000000	0.000000	Uiso	1.000000	-0.238694
C5	C	-0.000140	0.001970	0.000000	0.000000	Uiso	1.000000	0.120903
C6	C	-0.021310	0.044580	0.000000	0.000000	Uiso	1.000000	-0.128132
C7	C	0.047430	0.002850	0.000000	0.000000	Uiso	1.000000	-0.128132
C8	C	0.002910	0.084740	0.000000	0.000000	Uiso	1.000000	-0.132650
C9	C	0.071920	0.042850	0.000000	0.000000	Uiso	1.000000	-0.132650
C10	C	0.049630	0.083940	0.000000	0.000000	Uiso	1.000000	-0.038405
H11	H	0.023130	-0.075650	-0.042550	0.000000	Uiso	1.000000	0.151311
H12	H	-0.030250	-0.098990	-0.042900	0.000000	Uiso	1.000000	0.151311
H13	H	-0.020170	-0.048600	-0.071580	0.000000	Uiso	1.000000	0.151311
H14	H	0.023130	-0.075650	0.042550	0.000000	Uiso	1.000000	0.151311
H15	H	-0.030250	-0.098990	0.042900	0.000000	Uiso	1.000000	0.151311
H16	H	-0.020170	-0.048600	0.071580	0.000000	Uiso	1.000000	0.151311
H17	H	-0.086460	-0.018460	-0.029520	0.000000	Uiso	1.000000	0.151311
H18	H	-0.091500	-0.068780	0.000000	0.000000	Uiso	1.000000	0.151311
H19	H	-0.086460	-0.018460	0.029520	0.000000	Uiso	1.000000	0.151311
H20	H	-0.055130	0.047690	0.000000	0.000000	Uiso	1.000000	0.143885
H21	H	0.065260	-0.026160	0.000000	0.000000	Uiso	1.000000	0.143885
H22	H	-0.013560	0.114590	0.000000	0.000000	Uiso	1.000000	0.160825
H23	H	0.106010	0.042110	0.000000	0.000000	Uiso	1.000000	0.160825
H24	H	0.067330	0.113100	0.000000	0.000000	Uiso	1.000000	0.143533
loop_
_geom_bond_atom_site_label_1
_geom_bond_atom_site_label_2
_geom_bond_distance
_geom_bond_site_symmetry_2
_ccdc_geom_bond_type
N1     C2      1.515   .     S
N1     C3      1.515   .     S
N1     C4      1.518   .     S
N1     C5      1.475   .     S
C2     H11     1.092   .     S
C2     H12     1.095   .     S
C2     H13     1.094   .     S
C3     H14     1.092   .     S
C3     H15     1.095   .     S
C3     H16     1.094   .     S
C4     H17     1.094   .     S
C4     H18     1.094   .     S
C4     H19     1.094   .     S
C5     C6      1.427   .     D
C5     C7      1.427   .     S
C6     C8      1.407   .     S
C6     H20     1.019   .     S
C7     C9      1.407   .     D
C7     H21     1.022   .     S
C8     C10     1.402   .     D
C8     H22     1.023   .     S
C9     C10     1.402   .     S
C9     H23     1.023   .     S
C10    H24     1.023   .     S
