data_NMP
_audit_creation_date              2023-02-07
_audit_creation_method            'Materials Studio'
_symmetry_space_group_name_H-M    'P1'
_symmetry_Int_Tables_number       1
_symmetry_cell_setting            triclinic
loop_
_symmetry_equiv_pos_as_xyz
  x,y,z
_cell_length_a                    30.0000
_cell_length_b                    30.0000
_cell_length_c                    30.0000
_cell_angle_alpha                 90.0000
_cell_angle_beta                  90.0000
_cell_angle_gamma                 90.0000
loop_
_atom_site_label
_atom_site_type_symbol
_atom_site_fract_x
_atom_site_fract_y
_atom_site_fract_z
_atom_site_U_iso_or_equiv
_atom_site_adp_type
_atom_site_occupancy
_atom_site_charge
N1	N	-0.018740	0.046130	0.043550	0.000000	Uiso	1.000000	0.157630
C2	C	0.021910	0.042510	0.059130	0.000000	Uiso	1.000000	-0.014493
C3	C	-0.030900	0.023260	0.006960	0.000000	Uiso	1.000000	-0.014493
C4	C	0.052470	0.015050	0.039180	0.000000	Uiso	1.000000	-0.092542
C5	C	-0.001930	-0.004220	-0.013830	0.000000	Uiso	1.000000	-0.092542
C6	C	0.040280	-0.008260	0.002720	0.000000	Uiso	1.000000	-0.003761
C7	C	-0.049870	0.074710	0.064620	0.000000	Uiso	1.000000	-0.268312
H8	H	0.031770	0.059570	0.085940	0.000000	Uiso	1.000000	0.170534
H9	H	-0.061540	0.026050	-0.005690	0.000000	Uiso	1.000000	0.170534
H10	H	0.083110	0.012300	0.051460	0.000000	Uiso	1.000000	0.173380
H11	H	-0.011140	-0.021210	-0.040710	0.000000	Uiso	1.000000	0.173380
H12	H	0.062010	-0.028400	-0.012130	0.000000	Uiso	1.000000	0.166418
H13	H	-0.047420	0.107940	0.049900	0.000000	Uiso	1.000000	0.158089
H14	H	-0.084200	0.062930	0.060800	0.000000	Uiso	1.000000	0.158089
H15	H	-0.044010	0.077540	0.100530	0.000000	Uiso	1.000000	0.158089
loop_
_geom_bond_atom_site_label_1
_geom_bond_atom_site_label_2
_geom_bond_distance
_geom_bond_site_symmetry_2
_ccdc_geom_bond_type
N1     C2      1.310   .     D
N1     C3      1.345   .     S
N1     C7      1.417   .     S
C2     C4      1.370   .     S
C2     H8      0.998   .     S
C3     C5      1.351   .     D
C3     H9      0.998   .     S
C4     C6      1.349   .     D
C4     H10     0.994   .     S
C5     C6      1.366   .     S
C5     H11     0.993   .     S
C6     H12     0.994   .     S
C7     H13     1.093   .     S
C7     H14     1.095   .     S
C7     H15     1.095   .     S
