data_TBP_opt
_audit_creation_date              2023-06-23
_audit_creation_method            'Materials Studio'
_symmetry_space_group_name_H-M    'P1'
_symmetry_Int_Tables_number       1
_symmetry_cell_setting            triclinic
loop_
_symmetry_equiv_pos_as_xyz
  x,y,z
_cell_length_a                    30.0000
_cell_length_b                    30.0000
_cell_length_c                    30.0000
_cell_angle_alpha                 90.0000
_cell_angle_beta                  90.0000
_cell_angle_gamma                 90.0000
loop_
_atom_site_label
_atom_site_type_symbol
_atom_site_fract_x
_atom_site_fract_y
_atom_site_fract_z
_atom_site_U_iso_or_equiv
_atom_site_adp_type
_atom_site_occupancy
_atom_site_charge
C1	C	-0.061830	-0.097370	-0.073830	0.000000	Uiso	1.000000	-0.130834
C2	C	-0.027430	-0.127800	-0.082530	0.000000	Uiso	1.000000	-0.055934
C3	C	0.015600	-0.119770	-0.066370	0.000000	Uiso	1.000000	-0.130834
C4	C	0.024670	-0.081130	-0.041800	0.000000	Uiso	1.000000	-0.076110
C5	C	-0.009700	-0.050230	-0.033570	0.000000	Uiso	1.000000	0.032560
C6	C	-0.053200	-0.058700	-0.049330	0.000000	Uiso	1.000000	-0.076110
P1	P	0.000600	0.000000	-0.001430	0.000000	Uiso	1.000000	0.039776
C7	C	-0.037230	0.000030	0.045370	0.000000	Uiso	1.000000	0.032560
C8	C	0.057600	-0.000030	0.017930	0.000000	Uiso	1.000000	0.032560
C9	C	0.066470	-0.000030	0.064030	0.000000	Uiso	1.000000	-0.076110
C10	C	0.110700	-0.000070	0.078930	0.000000	Uiso	1.000000	-0.130834
C11	C	0.145830	-0.000070	0.048200	0.000000	Uiso	1.000000	-0.055934
C12	C	0.137030	-0.000070	0.002270	0.000000	Uiso	1.000000	-0.130834
C13	C	0.093030	-0.000030	-0.013070	0.000000	Uiso	1.000000	-0.076110
C14	C	-0.050900	0.040830	0.064230	0.000000	Uiso	1.000000	-0.076110
C15	C	-0.078400	0.040600	0.101870	0.000000	Uiso	1.000000	-0.130834
C16	C	-0.092130	0.000030	0.120630	0.000000	Uiso	1.000000	-0.055934
C17	C	-0.078430	-0.040530	0.101870	0.000000	Uiso	1.000000	-0.130834
C18	C	-0.050970	-0.040800	0.064230	0.000000	Uiso	1.000000	-0.076110
C19	C	-0.009630	0.050230	-0.033570	0.000000	Uiso	1.000000	0.032560
C20	C	-0.053130	0.058770	-0.049330	0.000000	Uiso	1.000000	-0.076110
C21	C	-0.061730	0.097430	-0.073830	0.000000	Uiso	1.000000	-0.130834
C22	C	-0.027300	0.127830	-0.082530	0.000000	Uiso	1.000000	-0.055934
C23	C	0.015730	0.119730	-0.066370	0.000000	Uiso	1.000000	-0.130834
C24	C	0.024730	0.081100	-0.041800	0.000000	Uiso	1.000000	-0.076110
H1	H	-0.095430	-0.103770	-0.085930	0.000000	Uiso	1.000000	0.147987
H2	H	-0.034300	-0.157870	-0.101600	0.000000	Uiso	1.000000	0.139756
H3	H	0.042200	-0.143570	-0.072630	0.000000	Uiso	1.000000	0.147987
H4	H	0.058000	-0.075430	-0.028870	0.000000	Uiso	1.000000	0.120794
H5	H	-0.080330	-0.035800	-0.042030	0.000000	Uiso	1.000000	0.120794
H6	H	0.039170	-0.000030	0.087870	0.000000	Uiso	1.000000	0.120794
H7	H	0.117600	-0.000070	0.114530	0.000000	Uiso	1.000000	0.147987
H8	H	0.180130	-0.000100	0.059970	0.000000	Uiso	1.000000	0.139756
H9	H	0.164370	-0.000100	-0.021570	0.000000	Uiso	1.000000	0.147987
H10	H	0.086300	-0.000030	-0.048770	0.000000	Uiso	1.000000	0.120794
H11	H	-0.040370	0.072230	0.049470	0.000000	Uiso	1.000000	0.120794
H12	H	-0.089200	0.072000	0.116430	0.000000	Uiso	1.000000	0.147987
H13	H	-0.113670	0.000070	0.149830	0.000000	Uiso	1.000000	0.139756
H14	H	-0.089270	-0.071930	0.116430	0.000000	Uiso	1.000000	0.147987
H15	H	-0.040430	-0.072200	0.049470	0.000000	Uiso	1.000000	0.120794
H16	H	-0.080300	0.035900	-0.042030	0.000000	Uiso	1.000000	0.120794
H17	H	-0.095300	0.103870	-0.085930	0.000000	Uiso	1.000000	0.147987
H18	H	-0.034130	0.157900	-0.101600	0.000000	Uiso	1.000000	0.139756
H19	H	0.042370	0.143530	-0.072630	0.000000	Uiso	1.000000	0.147987
H20	H	0.058100	0.075370	-0.028870	0.000000	Uiso	1.000000	0.120794
loop_
_geom_bond_atom_site_label_1
_geom_bond_atom_site_label_2
_geom_bond_distance
_geom_bond_site_symmetry_2
_ccdc_geom_bond_type
C1     C2      1.402   .     A
C1     C6      1.397   .     A
C1     H1      1.088   .     S
C2     C3      1.400   .     A
C2     H2      1.088   .     S
C3     C4      1.400   .     A
C3     H3      1.087   .     S
C4     C5      1.408   .     A
C4     H4      1.086   .     S
C5     C6      1.411   .     A
C5     P1      1.815   .     S
C6     H5      1.087   .     S
P1     C7      1.805   .     S
P1     C8      1.806   .     S
P1     C19     1.815   .     S
C7     C14     1.409   .     A
C7     C18     1.411   .     A
C8     C9      1.408   .     A
C8     C13     1.412   .     A
C9     C10     1.400   .     A
C9     H6      1.087   .     S
C10    C11     1.400   .     A
C10    H7      1.088   .     S
C11    C12     1.403   .     A
C11    H8      1.088   .     S
C12    C13     1.398   .     A
C12    H9      1.088   .     S
C13    H10     1.090   .     S
C14    C15     1.398   .     A
C14    H11     1.088   .     S
C15    C16     1.403   .     A
C15    H12     1.088   .     S
C16    C17     1.402   .     A
C16    H13     1.088   .     S
C17    C18     1.398   .     A
C17    H14     1.088   .     S
C18    H15     1.088   .     S
C19    C20     1.411   .     A
C19    C24     1.408   .     A
C20    C21     1.397   .     A
C20    H16     1.088   .     S
C21    C22     1.402   .     A
C21    H17     1.088   .     S
C22    C23     1.400   .     A
C22    H18     1.088   .     S
C23    C24     1.400   .     A
C23    H19     1.088   .     S
C24    H20     1.087   .     S
