data_TEA
_audit_creation_date              2023-02-07
_audit_creation_method            'Materials Studio'
_symmetry_space_group_name_H-M    'P1'
_symmetry_Int_Tables_number       1
_symmetry_cell_setting            triclinic
loop_
_symmetry_equiv_pos_as_xyz
  x,y,z
_cell_length_a                    30.0000
_cell_length_b                    30.0000
_cell_length_c                    30.0000
_cell_angle_alpha                 90.0000
_cell_angle_beta                  90.0000
_cell_angle_gamma                 90.0000
loop_
_atom_site_label
_atom_site_type_symbol
_atom_site_fract_x
_atom_site_fract_y
_atom_site_fract_z
_atom_site_U_iso_or_equiv
_atom_site_adp_type
_atom_site_occupancy
_atom_site_charge
N1	N	0.064860	-0.022930	-0.038040	0.000000	Uiso	1.000000	-0.000512
C2	C	0.116040	-0.025030	-0.035680	0.000000	Uiso	1.000000	-0.008109
C3	C	0.052760	0.002550	-0.080720	0.000000	Uiso	1.000000	-0.008109
C4	C	0.047960	-0.071100	-0.041610	0.000000	Uiso	1.000000	-0.008109
C5	C	0.047840	0.000530	0.003940	0.000000	Uiso	1.000000	-0.008109
C6	C	0.139580	-0.049280	0.003650	0.000000	Uiso	1.000000	-0.106790
C7	C	0.067020	0.052180	-0.085780	0.000000	Uiso	1.000000	-0.106790
C8	C	-0.002430	-0.081890	-0.047470	0.000000	Uiso	1.000000	-0.106790
C9	C	-0.002260	0.013000	0.008760	0.000000	Uiso	1.000000	-0.106790
H10	H	0.129160	-0.040550	-0.066040	0.000000	Uiso	1.000000	0.083293
H11	H	0.129940	0.008620	-0.034880	0.000000	Uiso	1.000000	0.083293
H12	H	0.016880	0.002610	-0.086110	0.000000	Uiso	1.000000	0.083293
H13	H	0.066700	-0.014860	-0.109610	0.000000	Uiso	1.000000	0.083293
H14	H	0.064550	-0.087350	-0.069780	0.000000	Uiso	1.000000	0.083293
H15	H	0.057650	-0.089890	-0.011980	0.000000	Uiso	1.000000	0.083293
H16	H	0.055440	-0.019680	0.033290	0.000000	Uiso	1.000000	0.083293
H17	H	0.066330	0.031630	0.008450	0.000000	Uiso	1.000000	0.083293
H18	H	0.131440	-0.033780	0.035490	0.000000	Uiso	1.000000	0.066147
H19	H	0.131010	-0.084550	0.005040	0.000000	Uiso	1.000000	0.066147
H20	H	0.175610	-0.046910	-0.000850	0.000000	Uiso	1.000000	0.066147
H21	H	0.053230	0.065580	-0.116690	0.000000	Uiso	1.000000	0.066147
H22	H	0.054500	0.072400	-0.058350	0.000000	Uiso	1.000000	0.066147
H23	H	0.103120	0.055680	-0.087550	0.000000	Uiso	1.000000	0.066147
H24	H	-0.006010	-0.116320	-0.058780	0.000000	Uiso	1.000000	0.066147
H25	H	-0.018600	-0.060690	-0.072050	0.000000	Uiso	1.000000	0.066147
H26	H	-0.020070	-0.079360	-0.015910	0.000000	Uiso	1.000000	0.066147
H27	H	-0.005750	0.040200	0.032730	0.000000	Uiso	1.000000	0.066147
H28	H	-0.021470	-0.014920	0.021680	0.000000	Uiso	1.000000	0.066147
H29	H	-0.016950	0.024060	-0.022480	0.000000	Uiso	1.000000	0.066147
loop_
_geom_bond_atom_site_label_1
_geom_bond_atom_site_label_2
_geom_bond_distance
_geom_bond_site_symmetry_2
_ccdc_geom_bond_type
N1     C2      1.539   .     S
N1     C3      1.535   .     S
N1     C4      1.535   .     S
N1     C5      1.530   .     S
C2     C6      1.556   .     S
C2     H10     1.096   .     S
C2     H11     1.092   .     S
C3     C7      1.557   .     S
C3     H12     1.088   .     S
C3     H13     1.095   .     S
C4     C8      1.556   .     S
C4     H14     1.095   .     S
C4     H15     1.092   .     S
C5     C9      1.556   .     S
C5     H16     1.093   .     S
C5     H17     1.094   .     S
C6     H18     1.090   .     S
C6     H19     1.090   .     S
C6     H20     1.092   .     S
C7     H21     1.092   .     S
C7     H22     1.089   .     S
C7     H23     1.089   .     S
C8     H24     1.092   .     S
C8     H25     1.088   .     S
C8     H26     1.087   .     S
C9     H27     1.092   .     S
C9     H28     1.088   .     S
C9     H29     1.088   .     S
