data_BDT
_audit_creation_date              2023-02-07
_audit_creation_method            'Materials Studio'
_symmetry_space_group_name_H-M    'P1'
_symmetry_Int_Tables_number       1
_symmetry_cell_setting            triclinic
loop_
_symmetry_equiv_pos_as_xyz
  x,y,z
_cell_length_a                    20.0000
_cell_length_b                    20.0000
_cell_length_c                    20.0000
_cell_angle_alpha                 90.0000
_cell_angle_beta                  90.0000
_cell_angle_gamma                 90.0000
loop_
_atom_site_label
_atom_site_type_symbol
_atom_site_fract_x
_atom_site_fract_y
_atom_site_fract_z
_atom_site_U_iso_or_equiv
_atom_site_adp_type
_atom_site_occupancy
_atom_site_charge
X1     C     0.17443   0.17443   0.83532   0.10010  Uiso   1.00 0.2206
C2     C     0.21671   0.21671   0.80078   0.10010  Uiso   1.00 -0.1633
C3     C     0.21671   0.21671   0.73181   0.10010  Uiso   1.00 -0.1633
X4     C     0.17443   0.17443   0.69727   0.10010  Uiso   1.00 0.2206
C5     C     0.13215   0.13215   0.73181   0.10010  Uiso   1.00 -0.1633
C6     C     0.13215   0.13215   0.80078   0.10010  Uiso   1.00 -0.1633
H1    H     0.24831   0.24831   0.82658   0.10010  Uiso   1.00 0.0883
H2    H     0.24831   0.24831   0.70601   0.10010  Uiso   1.00 0.0883
H3    H     0.10054   0.10054   0.70601   0.10010  Uiso   1.00 0.0883
H4    H     0.10054   0.10054   0.82658   0.10010  Uiso   1.00 0.0883
loop_
_geom_bond_atom_site_label_1
_geom_bond_atom_site_label_2
_geom_bond_distance
_geom_bond_site_symmetry_2
_ccdc_geom_bond_type
X1     C2      1.381   .     A
X1     C6      1.381   .     A
C2     C3      1.379   .     A
C2     H1     1.032   .     S
C3     X4      1.381   .     A
C3     H2     1.032   .     S
X4     C5      1.381   .     A
C5     C6      1.379   .     A
C5     H3     1.032   .     S
C6     H4     1.032   .     S
