data_image0
_chemical_formula_structural       SHSC3HC2NCFeC5SH5FeNHCH2CH2CHCHSCH2CS2CFeS2C2FeCHSH2CH3SFeC6H4SH2CFeH2NC4HCHCS3C2FeNHSFeSC2H2CH4FeS2FeHSHSHCS2FeSC8H4C6H2CHSHCHC4H3CHNH2FeHFeHCH3C2SHC2SHCHNHFeSHFeS2FeSFeS3CSHC2H3C6H5C2H2C2HNC2HC2HC4H2S2CFeCH2NHCHCHC2H3CH2C2HNCHCH5C2HNFeS2CHCHCH2CHCHCH2NSHS2CH2C3HCHCHCNHC2SC2SCHSH5CSCS2HC2H2C2HFeHFe2SH3CFeHCFeH2C4HC4H4C3FeS2FeS2FeSFeS3CHC7SH3C2FeHCHC4H6C2H2C2HN2HCHCH2C2SH3CH2CH2C2HSH2C2H2SCFeH4C3H2CHC3NH2C2HSCHC2HNCHS3HCSFeSC2HCFeC4H4CFeCHNC6H6CSCHCHFeCH3CH2CHCH2FeS2C2HCH3C2SHNH3C4HCHCFeHS2
_chemical_formula_sum              "S72 H216 C216 N18 Fe36"
_cell_length_a       35.7962
_cell_length_b       35.9277
_cell_length_c       31.2685
_cell_angle_alpha    88.7655
_cell_angle_beta     91.0707
_cell_angle_gamma    119.971

_space_group_name_H-M_alt    "P 1"
_space_group_IT_number       1

loop_
  _space_group_symop_operation_xyz
  'x, y, z'

loop_
  _atom_site_type_symbol
  _atom_site_label
  _atom_site_symmetry_multiplicity
  _atom_site_fract_x
  _atom_site_fract_y
  _atom_site_fract_z
  _atom_site_occupancy
  S   S1        1.0  0.20062  0.05172  0.01568  1.0000
  H   H1        1.0  0.04499  0.37178  0.45339  1.0000
  S   S2        1.0  0.32185  0.09947  0.05031  1.0000
  C   C1        1.0  0.27598  0.06764  0.22028  1.0000
  C   C2        1.0  0.25408  0.08939  0.14189  1.0000
  C   C3        1.0  0.03983  0.35030  0.02576  1.0000
  H   H2        1.0  0.03403  0.37266  0.00536  1.0000
  C   C4        1.0  0.17547  0.16431  0.99177  1.0000
  C   C5        1.0  0.24201  0.03682  0.19553  1.0000
  N   N1        1.0  0.23115  0.04803  0.15710  1.0000
  C   C6        1.0  0.03812  0.37139  0.15868  1.0000
  Fe  Fe1       1.0  0.07080  0.20973  0.99397  1.0000
  C   C7        1.0  0.34071  0.09008  0.09982  1.0000
  C   C8        1.0  0.04227  0.07386  0.01688  1.0000
  C   C9        1.0  0.32121  0.04943  0.11940  1.0000
  C   C10       1.0  0.06740  0.05719  0.00184  1.0000
  C   C11       1.0  0.05652  0.34102  0.10014  1.0000
  S   S3        1.0  0.06720  0.26699  0.01589  1.0000
  H   H3        1.0  0.06885  0.32076  0.08925  1.0000
  H   H4        1.0  0.30707  0.15345  0.15310  1.0000
  H   H5        1.0  0.05749  0.10712  0.02690  1.0000
  H   H6        1.0  0.29471  0.02239  0.10365  1.0000
  H   H7        1.0  0.24706  0.09786  0.11040  1.0000
  Fe  Fe2       1.0  0.26260  0.05058  0.01377  1.0000
  N   N2        1.0  0.04033  0.35880  0.07149  1.0000
  H   H8        1.0  0.32663  0.13370  0.22344  1.0000
  C   C12       1.0  0.03422  0.39344  0.46355  1.0000
  H   H9        1.0  0.32595  0.01904  0.02346  1.0000
  H   H10       1.0  0.06758  0.33193  0.16666  1.0000
  C   C13       1.0  0.05590  0.34723  0.14408  1.0000
  H   H11       1.0  0.07133  0.35428  0.01584  1.0000
  H   H12       1.0  0.19388  0.17992  0.02023  1.0000
  C   C14       1.0  0.28810  0.12104  0.16590  1.0000
  H   H13       1.0  0.28581  0.05846  0.24991  1.0000
  C   C15       1.0  0.29906  0.11000  0.20533  1.0000
  H   H14       1.0  0.10211  0.07769  0.00092  1.0000
  S   S4        1.0  0.12971  0.20423  0.00905  1.0000
  C   C16       1.0  0.33555  0.04393  0.16005  1.0000
  H   H15       1.0  0.03602  0.37520  0.19275  1.0000
  H   H16       1.0  0.17914  0.02820  0.11214  1.0000
  C   C17       1.0  0.18529  0.13712  0.96892  1.0000
  S   S5        1.0  0.17253  0.08126  0.90407  1.0000
  S   S6        1.0  0.26478  0.05248  0.94171  1.0000
  C   C18       1.0  0.03514  0.44255  0.51647  1.0000
  Fe  Fe3       1.0  0.12543  0.43240  0.68997  1.0000
  S   S7        1.0  0.13249  0.43042  0.61848  1.0000
  S   S8        1.0  0.10829  0.37023  0.72658  1.0000
  C   C19       1.0  0.22350  0.41301  0.72169  1.0000
  C   C20       1.0  0.11851  0.15140  0.94105  1.0000
  Fe  Fe4       1.0  0.10183  0.47181  0.61325  1.0000
  C   C21       1.0  0.16188  0.11702  0.93197  1.0000
  H   H17       1.0  0.27667  0.44441  0.76600  1.0000
  S   S9        1.0  0.09079  0.47017  0.68450  1.0000
  H   H18       1.0  0.17762  0.38533  0.67032  1.0000
  H   H19       1.0  0.21154  0.13238  0.97952  1.0000
  C   C22       1.0  0.26710  0.43589  0.73291  1.0000
  H   H20       1.0  0.07623  0.28446  0.85920  1.0000
  H   H21       1.0  0.30966  0.44843  0.63412  1.0000
  H   H22       1.0  0.19891  0.40348  0.74597  1.0000
  S   S10       1.0  0.04793  0.46533  0.56815  1.0000
  Fe  Fe5       1.0  0.19953  0.04725  0.94450  1.0000
  C   C23       1.0  0.09368  0.35982  0.78124  1.0000
  C   C24       1.0  0.09195  0.32368  0.80156  1.0000
  C   C25       1.0  0.07781  0.31258  0.84413  1.0000
  C   C26       1.0  0.06489  0.33740  0.86669  1.0000
  C   C27       1.0  0.06734  0.37395  0.84662  1.0000
  C   C28       1.0  0.08177  0.38522  0.80414  1.0000
  H   H23       1.0  0.07187  0.41017  0.52226  1.0000
  H   H24       1.0  0.09263  0.15669  0.93027  1.0000
  H   H25       1.0  0.08295  0.41312  0.78890  1.0000
  H   H26       1.0  0.25520  0.42544  0.58073  1.0000
  S   S11       1.0  0.19059  0.49101  0.69820  1.0000
  H   H27       1.0  0.10120  0.30389  0.78415  1.0000
  H   H28       1.0  0.05752  0.39343  0.86380  1.0000
  C   C29       1.0  0.12875  0.12458  0.91781  1.0000
  Fe  Fe6       1.0  0.19539  0.49227  0.62704  1.0000
  H   H29       1.0  0.11063  0.10922  0.88915  1.0000
  H   H30       1.0  0.20137  0.40919  0.59495  1.0000
  N   N3        1.0  0.24235  0.41583  0.64785  1.0000
  C   C30       1.0  0.21162  0.40299  0.67877  1.0000
  C   C31       1.0  0.28522  0.43773  0.65864  1.0000
  C   C32       1.0  0.14194  0.17135  0.97813  1.0000
  C   C33       1.0  0.29825  0.44811  0.70128  1.0000
  H   H31       1.0  0.21965  0.37035  0.59794  1.0000
  C   C34       1.0  0.22902  0.40437  0.60320  1.0000
  H   H32       1.0  0.33230  0.46659  0.70947  1.0000
  C   C35       1.0  0.35310  0.01904  0.93553  1.0000
  S   S12       1.0  0.04277  0.32233  0.91873  1.0000
  S   S13       1.0  0.04205  0.20871  0.92934  1.0000
  S   S14       1.0  0.25770  0.50905  0.59371  1.0000
  C   C36       1.0  0.04966  0.41529  0.50251  1.0000
  C   C37       1.0  0.35565  0.03280  0.89294  1.0000
  Fe  Fe7       1.0  0.03266  0.26181  0.95357  1.0000
  N   N4        1.0  0.04857  0.01579  0.98800  1.0000
  H   H33       1.0  0.09075  0.01834  0.93989  1.0000
  S   S15       1.0  0.23004  0.97882  0.01927  1.0000
  Fe  Fe8       1.0  0.16771  0.97989  0.01475  1.0000
  S   S16       1.0  0.11025  0.94895  0.05859  1.0000
  C   C38       1.0  0.06071  0.91377  0.03337  1.0000
  C   C39       1.0  0.05966  0.89161  0.99677  1.0000
  H   H34       1.0  0.34504  0.96614  0.43112  1.0000
  H   H35       1.0  0.10188  0.00545  0.99302  1.0000
  C   C40       1.0  0.19691  0.01500  0.13056  1.0000
  H   H36       1.0  0.17257  0.98774  0.15018  1.0000
  H   H37       1.0  0.21098  0.00230  0.10765  1.0000
  H   H38       1.0  0.31983  0.01257  0.17544  1.0000
  H   H39       1.0  0.22518  0.00371  0.20678  1.0000
  Fe  Fe9       1.0  0.27893  0.82272  0.63382  1.0000
  S   S17       1.0  0.33745  0.84417  0.59360  1.0000
  S   S18       1.0  0.21994  0.75822  0.62158  1.0000
  Fe  Fe10      1.0  0.31550  0.90979  0.67744  1.0000
  H   H40       1.0  0.21880  0.91415  0.66561  1.0000
  S   S19       1.0  0.27470  0.88169  0.61845  1.0000
  H   H41       1.0  0.23841  0.64982  0.59591  1.0000
  S   S20       1.0  0.24945  0.93790  0.91397  1.0000
  H   H42       1.0  0.27924  0.52669  0.68428  1.0000
  C   C41       1.0  0.34597  0.55158  0.59950  1.0000
  S   S21       1.0  0.18252  0.58946  0.72493  1.0000
  S   S22       1.0  0.31491  0.84850  0.69558  1.0000
  Fe  Fe11      1.0  0.33653  0.90581  0.58295  1.0000
  S   S23       1.0  0.16556  0.53358  0.61536  1.0000
  C   C42       1.0  0.32694  0.64603  0.63080  1.0000
  C   C43       1.0  0.18471  0.81527  0.68524  1.0000
  C   C44       1.0  0.21072  0.71188  0.65062  1.0000
  C   C45       1.0  0.17909  0.67154  0.63586  1.0000
  C   C46       1.0  0.17081  0.63384  0.65809  1.0000
  C   C47       1.0  0.19351  0.63631  0.69578  1.0000
  C   C48       1.0  0.22489  0.67673  0.71084  1.0000
  C   C49       1.0  0.23386  0.71447  0.68807  1.0000
  H   H43       1.0  0.16095  0.66937  0.60701  1.0000
  H   H44       1.0  0.14612  0.60288  0.64658  1.0000
  H   H45       1.0  0.24242  0.67876  0.74008  1.0000
  H   H46       1.0  0.25829  0.74545  0.69973  1.0000
  C   C50       1.0  0.28556  0.94755  0.77205  1.0000
  C   C51       1.0  0.27057  0.97392  0.78818  1.0000
  C   C52       1.0  0.25911  0.97114  0.83145  1.0000
  C   C53       1.0  0.26260  0.94192  0.85911  1.0000
  C   C54       1.0  0.27801  0.91583  0.84313  1.0000
  C   C55       1.0  0.28944  0.91858  0.79978  1.0000
  H   H47       1.0  0.28111  0.89334  0.86440  1.0000
  H   H48       1.0  0.30096  0.89813  0.78777  1.0000
  C   C56       1.0  0.19285  0.86421  0.73935  1.0000
  H   H49       1.0  0.28802  0.72742  0.60985  1.0000
  S   S24       1.0  0.29672  0.95069  0.71670  1.0000
  H   H50       1.0  0.26746  0.99643  0.76693  1.0000
  C   C57       1.0  0.28507  0.63139  0.61525  1.0000
  H   H51       1.0  0.19648  0.89478  0.74867  1.0000
  C   C58       1.0  0.30720  0.53525  0.62199  1.0000
  C   C59       1.0  0.19071  0.79788  0.75911  1.0000
  C   C60       1.0  0.19405  0.83665  0.77097  1.0000
  C   C61       1.0  0.34843  0.55714  0.68848  1.0000
  H   H52       1.0  0.33799  0.62322  0.63597  1.0000
  H   H53       1.0  0.16107  0.88980  0.67141  1.0000
  H   H54       1.0  0.18141  0.80661  0.65178  1.0000
  C   C62       1.0  0.30868  0.53891  0.66652  1.0000
  H   H55       1.0  0.26383  0.59747  0.60899  1.0000
  N   N5        1.0  0.18834  0.85341  0.69713  1.0000
  H   H56       1.0  0.19834  0.84578  0.80435  1.0000
  H   H57       1.0  0.19222  0.77643  0.78317  1.0000
  Fe  Fe12      1.0  0.15705  0.52901  0.68632  1.0000
  H   H58       1.0  0.34517  0.54902  0.56503  1.0000
  Fe  Fe13      1.0  0.22854  0.98042  0.94688  1.0000
  H   H59       1.0  0.34913  0.55874  0.72302  1.0000
  C   C63       1.0  0.18763  0.88330  0.66487  1.0000
  H   H60       1.0  0.18312  0.87053  0.63195  1.0000
  H   H61       1.0  0.05736  0.96563  0.96268  1.0000
  H   H62       1.0  0.18321  0.75693  0.70637  1.0000
  C   C64       1.0  0.29871  0.70428  0.61577  1.0000
  C   C65       1.0  0.18579  0.78697  0.71602  1.0000
  S   S25       1.0  0.16311  0.97508  0.94333  1.0000
  H   H63       1.0  0.08932  0.89544  0.98412  1.0000
  C   C66       1.0  0.27091  0.66077  0.60779  1.0000
  C   C67       1.0  0.07582  0.00041  0.96999  1.0000
  S   S26       1.0  0.33925  0.92899  0.51427  1.0000
  H   H64       1.0  0.24751  0.99157  0.84338  1.0000
  C   C68       1.0  0.34022  0.71770  0.63183  1.0000
  H   H65       1.0  0.34198  0.98533  0.94220  1.0000
  N   N6        1.0  0.35365  0.68854  0.63946  1.0000
  H   H66       1.0  0.34741  0.01021  0.86712  1.0000
  Fe  Fe14      1.0  0.43751  0.12179  0.27514  1.0000
  S   S27       1.0  0.42322  0.13763  0.34025  1.0000
  H   H67       1.0  0.61021  0.29841  0.22578  1.0000
  Fe  Fe15      1.0  0.53474  0.18000  0.28719  1.0000
  S   S28       1.0  0.52782  0.19927  0.35263  1.0000
  S   S29       1.0  0.59961  0.21536  0.25482  1.0000
  Fe  Fe16      1.0  0.47851  0.12956  0.36375  1.0000
  S   S30       1.0  0.48320  0.10230  0.42893  1.0000
  Fe  Fe17      1.0  0.47367  0.20566  0.32393  1.0000
  S   S31       1.0  0.47134  0.26526  0.34061  1.0000
  S   S32       1.0  0.49018  0.10940  0.29983  1.0000
  S   S33       1.0  0.48316  0.19074  0.25719  1.0000
  C   C69       1.0  0.47622  0.36703  0.38506  1.0000
  S   S34       1.0  0.58683  0.44472  0.24972  1.0000
  H   H68       1.0  0.58459  0.33092  0.22625  1.0000
  C   C70       1.0  0.64684  0.23043  0.28524  1.0000
  C   C71       1.0  0.64645  0.20840  0.32282  1.0000
  H   H69       1.0  0.64324  0.39694  0.25063  1.0000
  H   H70       1.0  0.61633  0.18197  0.33441  1.0000
  H   H71       1.0  0.44169  0.33632  0.32743  1.0000
  C   C72       1.0  0.50879  0.31202  0.31315  1.0000
  C   C73       1.0  0.54259  0.34554  0.33577  1.0000
  C   C74       1.0  0.56744  0.38613  0.31634  1.0000
  C   C75       1.0  0.55863  0.39345  0.27419  1.0000
  C   C76       1.0  0.52589  0.35943  0.25109  1.0000
  C   C77       1.0  0.50103  0.31882  0.27049  1.0000
  H   H72       1.0  0.54852  0.34054  0.36889  1.0000
  H   H73       1.0  0.59305  0.41167  0.33424  1.0000
  H   H74       1.0  0.51898  0.36476  0.21841  1.0000
  H   H75       1.0  0.47460  0.29324  0.25302  1.0000
  H   H76       1.0  0.54301  0.47448  0.39518  1.0000
  C   C78       1.0  0.38954  0.11932  0.16136  1.0000
  C   C79       1.0  0.64709  0.38010  0.27809  1.0000
  H   H77       1.0  0.46480  0.33689  0.40260  1.0000
  H   H78       1.0  0.41550  0.14650  0.17755  1.0000
  C   C80       1.0  0.52428  0.48353  0.31348  1.0000
  C   C81       1.0  0.59434  0.31125  0.24628  1.0000
  H   H79       1.0  0.39077  0.15631  0.10557  1.0000
  N   N7        1.0  0.50827  0.44346  0.33832  1.0000
  C   C82       1.0  0.47989  0.40539  0.31954  1.0000
  C   C83       1.0  0.36923  0.07896  0.18156  1.0000
  H   H80       1.0  0.38115  0.05853  0.03446  1.0000
  C   C84       1.0  0.46317  0.36669  0.34270  1.0000
  C   C85       1.0  0.68595  0.26476  0.27063  1.0000
  H   H81       1.0  0.47086  0.40470  0.28612  1.0000
  C   C86       1.0  0.43953  0.05720  0.45371  1.0000
  C   C87       1.0  0.68542  0.21938  0.34441  1.0000
  C   C88       1.0  0.37538  0.12478  0.12059  1.0000
  C   C89       1.0  0.65701  0.33804  0.34900  1.0000
  H   H82       1.0  0.40094  0.03366  0.39652  1.0000
  H   H83       1.0  0.61035  0.28028  0.31780  1.0000
  S   S35       1.0  0.38200  0.07142  0.23485  1.0000
  S   S36       1.0  0.63616  0.49638  0.36025  1.0000
  C   C90       1.0  0.50511  0.40603  0.40402  1.0000
  Fe  Fe18      1.0  0.63417  0.50130  0.28907  1.0000
  C   C91       1.0  0.52063  0.44425  0.38015  1.0000
  H   H84       1.0  0.51582  0.40664  0.43681  1.0000
  H   H85       1.0  0.56435  0.28365  0.25933  1.0000
  N   N8        1.0  0.62361  0.33620  0.28110  1.0000
  H   H86       1.0  0.68511  0.20121  0.37259  1.0000
  C   C92       1.0  0.62854  0.31511  0.31575  1.0000
  H   H87       1.0  0.53682  0.48071  0.28216  1.0000
  C   C93       1.0  0.68039  0.38285  0.34667  1.0000
  H   H88       1.0  0.68636  0.28229  0.24190  1.0000
  C   C94       1.0  0.40365  0.02767  0.43020  1.0000
  C   C95       1.0  0.67547  0.40407  0.31102  1.0000
  H   H89       1.0  0.55114  0.51114  0.33023  1.0000
  H   H90       1.0  0.49797  0.49095  0.30793  1.0000
  H   H91       1.0  0.66082  0.32105  0.37632  1.0000
  C   C96       1.0  0.35962  0.03207  0.01266  1.0000
  H   H92       1.0  0.47010  0.07191  0.51590  1.0000
  H   H93       1.0  0.53420  0.03400  0.53498  1.0000
  C   C97       1.0  0.44256  0.04902  0.49746  1.0000
  C   C98       1.0  0.37536  0.08937  0.95971  1.0000
  H   H94       1.0  0.36882  0.08621  0.85101  1.0000
  N   N9        1.0  0.36355  0.04739  0.96824  1.0000
  C   C99       1.0  0.36775  0.07551  0.88393  1.0000
  H   H95       1.0  0.38628  0.13718  0.91095  1.0000
  C   C100      1.0  0.37764  0.10406  0.91749  1.0000
  H   H96       1.0  0.38239  0.11160  0.98564  1.0000
  H   H97       1.0  0.66729  0.71418  0.45419  1.0000
  H   H98       1.0  0.52215  0.67488  0.44742  1.0000
  H   H99       1.0  0.53672  0.57883  0.45451  1.0000
  H   H100      1.0  0.39305  0.91783  0.44769  1.0000
  C   C101      1.0  0.54995  0.69956  0.46437  1.0000
  C   C102      1.0  0.56853  0.59614  0.46889  1.0000
  H   H101      1.0  0.67163  0.61918  0.45274  1.0000
  N   N10       1.0  0.62579  0.73460  0.48089  1.0000
  Fe  Fe19      1.0  0.64380  0.56234  0.36025  1.0000
  S   S37       1.0  0.63754  0.56561  0.28839  1.0000
  S   S38       1.0  0.59483  0.57022  0.39913  1.0000
  C   C103      1.0  0.66862  0.73973  0.47470  1.0000
  H   H102      1.0  0.67364  0.66090  0.13218  1.0000
  C   C104      1.0  0.37204  0.98944  0.44989  1.0000
  H   H103      1.0  0.59429  0.68342  0.43647  1.0000
  C   C105      1.0  0.60357  0.59655  0.44873  1.0000
  H   H104      1.0  0.68405  0.63157  0.20118  1.0000
  H   H105      1.0  0.44029  0.91736  0.42849  1.0000
  C   C106      1.0  0.42876  0.93693  0.44455  1.0000
  H   H106      1.0  0.49873  0.01158  0.46422  1.0000
  C   C107      1.0  0.59088  0.70455  0.45838  1.0000
  H   H107      1.0  0.43566  0.96527  0.42395  1.0000
  C   C108      1.0  0.64444  0.61878  0.46777  1.0000
  H   H108      1.0  0.69039  0.77144  0.45962  1.0000
  H   H109      1.0  0.36840  0.00653  0.01596  1.0000
  N   N11       1.0  0.44944  0.95020  0.48670  1.0000
  S   S39       1.0  0.37774  0.93833  0.64050  1.0000
  H   H110      1.0  0.43893  0.91287  0.58874  1.0000
  S   S40       1.0  0.43191  0.86952  0.67500  1.0000
  S   S41       1.0  0.43611  0.59281  0.69481  1.0000
  C   C109      1.0  0.55691  0.63213  0.80125  1.0000
  H   H111      1.0  0.47676  0.64969  0.76615  1.0000
  H   H112      1.0  0.41548  0.58278  0.60375  1.0000
  C   C110      1.0  0.44951  0.83946  0.64618  1.0000
  C   C111      1.0  0.65026  0.64093  0.50619  1.0000
  C   C112      1.0  0.43469  0.82539  0.60463  1.0000
  H   H113      1.0  0.41174  0.83263  0.58940  1.0000
  C   C113      1.0  0.45003  0.80214  0.58242  1.0000
  H   H114      1.0  0.43857  0.79147  0.55025  1.0000
  C   C114      1.0  0.47952  0.82987  0.66534  1.0000
  H   H115      1.0  0.57753  0.77814  0.53715  1.0000
  C   C115      1.0  0.57435  0.61831  0.50734  1.0000
  N   N12       1.0  0.52761  0.69027  0.80871  1.0000
  H   H116      1.0  0.68212  0.65841  0.52045  1.0000
  C   C116      1.0  0.38713  0.57304  0.66603  1.0000
  C   C117      1.0  0.51935  0.62505  0.77995  1.0000
  S   S42       1.0  0.59588  0.75097  0.62434  1.0000
  C   C118      1.0  0.47984  0.79237  0.60176  1.0000
  C   C119      1.0  0.57954  0.66843  0.82654  1.0000
  S   S43       1.0  0.62576  0.67401  0.57122  1.0000
  C   C120      1.0  0.66892  0.74176  0.77176  1.0000
  H   H117      1.0  0.49134  0.84089  0.69735  1.0000
  S   S44       1.0  0.61078  0.76916  0.75054  1.0000
  H   H118      1.0  0.41850  0.70627  0.62744  1.0000
  H   H119      1.0  0.58301  0.72624  0.84837  1.0000
  H   H120      1.0  0.40358  0.89184  0.51747  1.0000
  H   H121      1.0  0.52465  0.74293  0.78089  1.0000
  H   H122      1.0  0.47788  0.70632  0.81189  1.0000
  C   C121      1.0  0.61544  0.64135  0.52585  1.0000
  S   S45       1.0  0.50891  0.71150  0.68212  1.0000
  C   C122      1.0  0.48914  0.97461  0.56652  1.0000
  S   S46       1.0  0.49760  0.76214  0.57362  1.0000
  S   S47       1.0  0.50841  0.66204  0.59394  1.0000
  H   H123      1.0  0.65736  0.72192  0.74364  1.0000
  C   C123      1.0  0.49443  0.80615  0.64337  1.0000
  C   C124      1.0  0.65227  0.76836  0.78167  1.0000
  H   H124      1.0  0.60949  0.67502  0.84231  1.0000
  H   H125      1.0  0.65484  0.81452  0.82635  1.0000
  C   C125      1.0  0.66755  0.79382  0.81845  1.0000
  C   C126      1.0  0.56429  0.69728  0.82999  1.0000
  H   H126      1.0  0.41167  0.73431  0.67117  1.0000
  Fe  Fe20      1.0  0.52567  0.72868  0.61345  1.0000
  H   H127      1.0  0.52734  0.74330  0.83836  1.0000
  Fe  Fe21      1.0  0.49614  0.64628  0.66399  1.0000
  Fe  Fe22      1.0  0.57788  0.72802  0.69229  1.0000
  S   S48       1.0  0.56392  0.66096  0.67961  1.0000
  H   H128      1.0  0.36147  0.75153  0.63829  1.0000
  H   H129      1.0  0.64875  0.78401  0.52738  1.0000
  H   H130      1.0  0.54726  0.61821  0.52222  1.0000
  C   C127      1.0  0.43282  0.92267  0.52101  1.0000
  Fe  Fe23      1.0  0.57744  0.68246  0.61033  1.0000
  H   H131      1.0  0.51773  0.79917  0.65844  1.0000
  C   C128      1.0  0.50612  0.00235  0.53128  1.0000
  Fe  Fe24      1.0  0.37381  0.87448  0.65380  1.0000
  H   H132      1.0  0.50177  0.59734  0.75956  1.0000
  H   H133      1.0  0.56886  0.60996  0.79757  1.0000
  C   C129      1.0  0.62126  0.76072  0.50897  1.0000
  C   C130      1.0  0.38585  0.57091  0.62137  1.0000
  C   C131      1.0  0.50528  0.65480  0.78381  1.0000
  C   C132      1.0  0.51358  0.72221  0.81015  1.0000
  H   H134      1.0  0.50409  0.98423  0.59790  1.0000
  C   C133      1.0  0.41079  0.01089  0.51725  1.0000
  C   C134      1.0  0.45241  0.93445  0.56139  1.0000
  C   C135      1.0  0.39764  0.70288  0.65485  1.0000
  C   C136      1.0  0.58103  0.75730  0.51494  1.0000
  H   H135      1.0  0.51357  0.72268  0.49814  1.0000
  H   H136      1.0  0.39811  0.67931  0.67819  1.0000
  H   H137      1.0  0.41401  0.00444  0.55065  1.0000
  H   H138      1.0  0.68247  0.73731  0.50612  1.0000
  C   C137      1.0  0.37592  0.98048  0.49321  1.0000
  C   C138      1.0  0.48596  0.98938  0.49125  1.0000
  C   C139      1.0  0.54512  0.72624  0.49281  1.0000
  Fe  Fe25      1.0  0.83603  0.31715  0.32718  1.0000
  S   S49       1.0  0.84254  0.35314  0.26605  1.0000
  S   S50       1.0  0.77372  0.26325  0.35397  1.0000
  Fe  Fe26      1.0  0.93223  0.36808  0.34676  1.0000
  S   S51       1.0  0.94633  0.40884  0.28678  1.0000
  S   S52       1.0  0.98245  0.36703  0.39182  1.0000
  Fe  Fe27      1.0  0.88673  0.41142  0.30374  1.0000
  S   S53       1.0  0.87986  0.46979  0.29071  1.0000
  Fe  Fe28      1.0  0.90095  0.34724  0.25349  1.0000
  S   S54       1.0  0.90747  0.33442  0.18365  1.0000
  S   S55       1.0  0.87643  0.37592  0.36639  1.0000
  S   S56       1.0  0.89070  0.30595  0.31195  1.0000
  C   C140      1.0  0.79116  0.23214  0.24618  1.0000
  H   H139      1.0  0.83279  0.24278  0.14839  1.0000
  C   C141      1.0  0.77858  0.48860  0.35853  1.0000
  C   C142      1.0  0.92841  0.30270  0.16439  1.0000
  C   C143      1.0  0.92792  0.29666  0.12005  1.0000
  C   C144      1.0  0.94525  0.27257  0.10312  1.0000
  C   C145      1.0  0.96289  0.25402  0.13052  1.0000
  C   C146      1.0  0.96239  0.25918  0.17494  1.0000
  C   C147      1.0  0.94542  0.28360  0.19186  1.0000
  S   S57       1.0  0.00856  0.16220  0.02466  1.0000
  H   H140      1.0  0.94513  0.26849  0.06893  1.0000
  H   H141      1.0  0.94581  0.28790  0.22605  1.0000
  H   H142      1.0  0.75430  0.30310  0.28137  1.0000
  C   C148      1.0  0.99757  0.04753  0.01839  1.0000
  C   C149      1.0  0.81793  0.49282  0.29444  1.0000
  Fe  Fe29      1.0  0.00217  0.21940  0.04179  1.0000
  H   H143      1.0  0.81241  0.30405  0.17836  1.0000
  C   C150      1.0  0.99077  0.42698  0.45144  1.0000
  H   H144      1.0  0.96789  0.43146  0.43214  1.0000
  C   C151      1.0  0.80722  0.20802  0.26671  1.0000
  C   C152      1.0  0.82466  0.23223  0.18139  1.0000
  C   C153      1.0  0.82657  0.45863  0.35828  1.0000
  C   C154      1.0  0.83749  0.47222  0.31580  1.0000
  H   H145      1.0  0.80046  0.19942  0.30033  1.0000
  H   H146      1.0  0.84206  0.29391  0.42505  1.0000
  H   H147      1.0  0.84195  0.44322  0.37519  1.0000
  H   H148      1.0  0.76035  0.27324  0.20305  1.0000
  H   H149      1.0  0.97595  0.24483  0.19633  1.0000
  H   H150      1.0  0.91195  0.08514  0.01391  1.0000
  C   C155      1.0  0.72473  0.25304  0.32913  1.0000
  C   C156      1.0  0.72459  0.27648  0.29288  1.0000
  H   H151      1.0  0.89459  0.30359  0.41032  1.0000
  H   H152      1.0  0.97765  0.06011  0.02979  1.0000
  C   C157      1.0  0.78472  0.27101  0.18338  1.0000
  C   C158      1.0  0.78831  0.50064  0.31557  1.0000
  H   H153      1.0  0.84589  0.17795  0.25952  1.0000
  N   N13       1.0  0.89133  0.32106  0.47378  1.0000
  N   N14       1.0  0.79999  0.24399  0.20408  1.0000
  H   H154      1.0  0.86161  0.19964  0.18288  1.0000
  C   C159      1.0  0.84122  0.20800  0.20083  1.0000
  H   H155      1.0  0.76948  0.25760  0.15196  1.0000
  C   C160      1.0  0.90059  0.05538  0.99700  1.0000
  H   H156      1.0  0.91456  0.31117  0.09863  1.0000
  H   H157      1.0  0.79017  0.45777  0.41295  1.0000
  C   C161      1.0  0.00428  0.39871  0.43814  1.0000
  C   C162      1.0  0.79744  0.46713  0.37967  1.0000
  S   S58       1.0  0.98715  0.22538  0.11095  1.0000
  H   H158      1.0  0.70228  0.40118  0.37240  1.0000
  H   H159      1.0  0.77194  0.24161  0.26433  1.0000
  H   H160      1.0  0.00834  0.39520  0.06307  1.0000
  C   C163      1.0  0.83257  0.19604  0.24385  1.0000
  H   H161      1.0  0.86096  0.25929  0.44562  1.0000
  H   H162      1.0  0.85257  0.35080  0.46848  1.0000
  C   C164      1.0  0.87118  0.29314  0.43691  1.0000
  H   H163      1.0  0.69334  0.43890  0.30907  1.0000
  H   H164      1.0  0.93663  0.29956  0.48382  1.0000
  C   C165      1.0  0.02125  0.38902  0.12932  1.0000
  C   C166      1.0  0.87790  0.34879  0.48613  1.0000
  H   H165      1.0  0.82644  0.50363  0.26165  1.0000
  S   S59       1.0  0.74501  0.50197  0.38733  1.0000
  H   H166      1.0  0.01412  0.31690  0.01879  1.0000
  H   H167      1.0  0.00580  0.40639  0.14058  1.0000
  C   C167      1.0  0.02253  0.38229  0.08556  1.0000
  C   C168      1.0  0.87795  0.01584  0.01902  1.0000
  H   H168      1.0  0.00036  0.22299  0.76678  1.0000
  H   H169      1.0  0.88715  0.39811  0.53056  1.0000
  S   S60       1.0  0.93394  0.10539  0.92425  1.0000
  C   C169      1.0  0.90736  0.05625  0.95301  1.0000
  Fe  Fe30      1.0  0.97905  0.16452  0.96168  1.0000
  H   H170      1.0  0.93833  0.25025  0.89401  1.0000
  H   H171      1.0  0.99495  0.46998  0.50088  1.0000
  H   H172      1.0  0.96743  0.30455  0.83511  1.0000
  H   H173      1.0  0.99819  0.29050  0.77100  1.0000
  C   C170      1.0  0.98544  0.22808  0.79420  1.0000
  C   C171      1.0  0.97103  0.15846  0.82482  1.0000
  C   C172      1.0  0.95055  0.24373  0.86533  1.0000
  H   H174      1.0  0.97117  0.34566  0.54672  1.0000
  H   H175      1.0  0.93943  0.18220  0.88798  1.0000
  C   C173      1.0  0.96674  0.27415  0.83218  1.0000
  H   H176      1.0  0.93901  0.13018  0.83242  1.0000
  C   C174      1.0  0.89714  0.37548  0.52132  1.0000
  C   C175      1.0  0.95180  0.20561  0.86196  1.0000
  C   C176      1.0  0.98408  0.26627  0.79623  1.0000
  N   N15       1.0  0.96902  0.19817  0.82668  1.0000
  H   H177      1.0  0.89686  0.01784  0.89726  1.0000
  H   H178      1.0  0.99473  0.15929  0.84883  1.0000
  C   C177      1.0  0.94404  0.34569  0.53064  1.0000
  C   C178      1.0  0.93025  0.37366  0.54381  1.0000
  H   H179      1.0  0.94667  0.39530  0.57018  1.0000
  S   S61       1.0  0.96677  0.21754  0.98093  1.0000
  C   C179      1.0  0.89191  0.01737  0.93134  1.0000
  H   H180      1.0  0.98051  0.15352  0.79275  1.0000
  C   C180      1.0  0.00625  0.44886  0.49036  1.0000
  C   C181      1.0  0.92441  0.31978  0.49508  1.0000
  H   H181      1.0  0.75414  0.85567  0.06703  1.0000
  N   N16       1.0  0.76009  0.82488  0.12423  1.0000
  C   C182      1.0  0.70596  0.67140  0.14399  1.0000
  H   H182      1.0  0.86261  0.87146  0.16193  1.0000
  S   S62       1.0  0.76204  0.65088  0.24972  1.0000
  S   S63       1.0  0.71639  0.59524  0.35929  1.0000
  S   S64       1.0  0.84577  0.83044  0.04172  1.0000
  H   H183      1.0  0.81819  0.88200  0.10689  1.0000
  C   C183      1.0  0.80923  0.81305  0.18719  1.0000
  S   S65       1.0  0.83449  0.92812  0.02640  1.0000
  Fe  Fe31      1.0  0.78177  0.77238  0.02677  1.0000
  S   S66       1.0  0.73202  0.72441  0.07328  1.0000
  C   C184      1.0  0.98122  0.85710  0.99383  1.0000
  C   C185      1.0  0.86250  0.97695  0.99739  1.0000
  H   H184      1.0  0.82855  0.80755  0.21089  1.0000
  C   C186      1.0  0.74155  0.70170  0.12018  1.0000
  Fe  Fe32      1.0  0.70958  0.59414  0.28714  1.0000
  C   C187      1.0  0.76519  0.78389  0.18351  1.0000
  C   C188      1.0  0.75331  0.66861  0.19914  1.0000
  C   C189      1.0  0.78898  0.69882  0.17527  1.0000
  C   C190      1.0  0.78319  0.71508  0.13578  1.0000
  H   H185      1.0  0.91931  0.56433  0.28914  1.0000
  H   H186      1.0  0.81609  0.59905  0.38607  1.0000
  H   H187      1.0  0.82126  0.70975  0.18741  1.0000
  H   H188      1.0  0.81083  0.73850  0.11784  1.0000
  C   C191      1.0  0.74099  0.79025  0.15154  1.0000
  Fe  Fe33      1.0  0.70786  0.52911  0.35206  1.0000
  C   C192      1.0  0.98219  0.88005  0.02984  1.0000
  H   H189      1.0  0.95236  0.87538  0.04293  1.0000
  N   N17       1.0  0.88550  0.59115  0.31984  1.0000
  C   C193      1.0  0.87683  0.60648  0.28274  1.0000
  C   C194      1.0  0.86468  0.58921  0.35682  1.0000
  C   C195      1.0  0.84611  0.61976  0.28191  1.0000
  C   C196      1.0  0.83376  0.60218  0.35709  1.0000
  C   C197      1.0  0.82463  0.61766  0.31939  1.0000
  C   C198      1.0  0.91848  0.57830  0.32030  1.0000
  H   H190      1.0  0.89326  0.60797  0.25342  1.0000
  H   H191      1.0  0.87085  0.57629  0.38606  1.0000
  H   H192      1.0  0.95069  0.60639  0.32711  1.0000
  H   H193      1.0  0.75020  0.75541  0.20398  1.0000
  H   H194      1.0  0.80067  0.62770  0.31901  1.0000
  H   H195      1.0  0.83855  0.63130  0.25241  1.0000
  C   C199      1.0  0.71176  0.65473  0.18313  1.0000
  S   S67       1.0  0.70530  0.52995  0.28063  1.0000
  C   C200      1.0  0.82833  0.84870  0.15964  1.0000
  H   H196      1.0  0.91130  0.55269  0.34478  1.0000
  C   C201      1.0  0.80302  0.85437  0.12839  1.0000
  H   H197      1.0  0.71461  0.79994  0.07323  1.0000
  Fe  Fe34      1.0  0.82342  0.86606  0.99792  1.0000
  C   C202      1.0  0.73386  0.83045  0.09092  1.0000
  H   H198      1.0  0.70722  0.76627  0.14750  1.0000
  H   H199      1.0  0.02251  0.92508  0.07816  1.0000
  H   H200      1.0  0.71174  0.83975  0.10549  1.0000
  C   C203      1.0  0.02188  0.90801  0.04983  1.0000
  H   H201      1.0  0.94393  0.98415  0.00651  1.0000
  H   H202      1.0  0.77464  0.51767  0.29902  1.0000
  C   C204      1.0  0.97864  0.00498  0.00516  1.0000
  H   H203      1.0  0.87225  0.01542  0.05294  1.0000
  C   C205      1.0  0.00477  0.98955  0.98979  1.0000
  H   H204      1.0  0.82927  0.81524  0.81291  1.0000
  H   H205      1.0  0.71069  0.81250  0.87333  1.0000
  Fe  Fe35      1.0  0.78645  0.79541  0.93062  1.0000
  S   S68       1.0  0.75637  0.76402  0.86684  1.0000
  S   S69       1.0  0.85090  0.85605  0.93803  1.0000
  C   C206      1.0  0.89109  0.74805  0.88824  1.0000
  C   C207      1.0  0.86993  0.97780  0.95352  1.0000
  H   H206      1.0  0.85797  0.94801  0.93653  1.0000
  C   C208      1.0  0.69914  0.79270  0.84518  1.0000
  H   H207      1.0  0.71357  0.72035  0.79024  1.0000
  H   H208      1.0  0.87581  0.71948  0.86738  1.0000
  H   H209      1.0  0.89773  0.88533  0.81189  1.0000
  C   C209      1.0  0.85847  0.81797  0.82705  1.0000
  C   C210      1.0  0.89687  0.85728  0.82656  1.0000
  S   S70       1.0  0.93243  0.81967  0.96895  1.0000
  H   H210      1.0  0.96034  0.82696  0.88100  1.0000
  N   N18       1.0  0.89378  0.78562  0.86590  1.0000
  H   H211      1.0  0.87164  0.74115  0.91771  1.0000
  H   H212      1.0  0.92340  0.75363  0.89841  1.0000
  H   H213      1.0  0.96374  0.89092  0.84618  1.0000
  C   C211      1.0  0.85745  0.78231  0.84719  1.0000
  C   C212      1.0  0.70071  0.74087  0.79831  1.0000
  C   C213      1.0  0.93174  0.82398  0.86519  1.0000
  C   C214      1.0  0.71596  0.76628  0.83512  1.0000
  H   H214      1.0  0.01959  0.84528  0.94972  1.0000
  C   C215      1.0  0.93383  0.86039  0.84570  1.0000
  H   H215      1.0  0.82714  0.75213  0.84846  1.0000
  C   C216      1.0  0.02006  0.86314  0.97734  1.0000
  Fe  Fe36      1.0  0.86893  0.81668  0.98116  1.0000
  H   H216      1.0  0.98976  0.95652  0.97929  1.0000
  S   S71       1.0  0.80680  0.75513  0.96969  1.0000
  S   S72       1.0  0.75735  0.80897  0.98700  1.0000
