data_image0
_chemical_formula_structural       HCHCHCHCHC2HCHFeCHSCHCHNC4H3C2HSFeHFeC2SFeC2SH3SHC2HNCHC2HSCS2NHCH2C2HCFeS2FeSCFeSFeS3CN2C2H2C3HC2H3C3HC2H3SC6SH3CH2CNCH5CH5CHCHCHC2H2CH2C2H2NC2FeS2FeS2FeSFeCS2NHCH2C4H2C6H7SH2CH4C4HC2H3CHSH2CHCH3CHNSHSCHCHC2HC2HFeHSHCHS3CHC4H2C2H3SHSHSCHFeHS2CHFeHC2FeHCH2CHC2HC2Fe2HNC2SCHFeC2HFeHCHSHC2HCHS2HFeS2FeS2FeSFeS4CFeSH2C6H8FeHC6H3FeNC5HCHCH3SC2HCH2SC2HFeHC4HNHCHCH3C2HNCH3C2HC2HC3SCH2C2HCNC2HCH4C2HCFeS2HCHSHSHFeSCHC2NSC6H6SCHCHCH2C2NCHC2HC3H2SCFeS2CH2SFeNSFeSCS2CHC2HC6H4SH2C5SCFeHC3H4CH2CHSFeHCH6NH3Fe
_chemical_formula_sum              "H216 C216 Fe36 S72 N18"
_cell_length_a       36.3354
_cell_length_b       38.0064
_cell_length_c       31.5053
_cell_angle_alpha    93.4552
_cell_angle_beta     85.671
_cell_angle_gamma    117.281

_space_group_name_H-M_alt    "P 1"
_space_group_IT_number       1

loop_
  _space_group_symop_operation_xyz
  'x, y, z'

loop_
  _atom_site_type_symbol
  _atom_site_label
  _atom_site_symmetry_multiplicity
  _atom_site_fract_x
  _atom_site_fract_y
  _atom_site_fract_z
  _atom_site_occupancy
  H   H1        1.0  0.14959  0.27411  0.21272  1.0000
  C   C1        1.0  0.12847  0.32805  0.15321  1.0000
  H   H2        1.0  0.23522  0.33021  0.12578  1.0000
  C   C2        1.0  0.17048  0.30257  0.11217  1.0000
  H   H3        1.0  0.17325  0.28178  0.08881  1.0000
  C   C3        1.0  0.19983  0.30956  0.25297  1.0000
  H   H4        1.0  0.09824  0.28794  0.25681  1.0000
  C   C4        1.0  0.21154  0.33422  0.28926  1.0000
  H   H5        1.0  0.11655  0.33519  0.36250  1.0000
  C   C5        1.0  0.20549  0.32987  0.13329  1.0000
  C   C6        1.0  0.13190  0.30168  0.12203  1.0000
  H   H6        1.0  0.13641  0.34062  0.04106  1.0000
  C   C7        1.0  0.12981  0.30038  0.26674  1.0000
  H   H7        1.0  0.08631  0.07324  0.06745  1.0000
  Fe  Fe1       1.0  0.09794  0.24623  0.03010  1.0000
  C   C8        1.0  0.10590  0.07806  0.03857  1.0000
  H   H8        1.0  0.22294  0.30507  0.23271  1.0000
  S   S1        1.0  0.08757  0.26829  0.09582  1.0000
  C   C9        1.0  0.12296  0.11490  0.01915  1.0000
  H   H9        1.0  0.09865  0.32744  0.16094  1.0000
  C   C10       1.0  0.15867  0.29228  0.24171  1.0000
  H   H10       1.0  0.11693  0.13844  0.03341  1.0000
  N   N1        1.0  0.14145  0.32417  0.30265  1.0000
  C   C11       1.0  0.16357  0.35570  0.17387  1.0000
  C   C12       1.0  0.11128  0.33346  0.32792  1.0000
  C   C13       1.0  0.11408  0.04749  0.02083  1.0000
  C   C14       1.0  0.18176  0.34121  0.31393  1.0000
  H   H11       1.0  0.07892  0.31057  0.32333  1.0000
  H   H12       1.0  0.18951  0.35084  0.03547  1.0000
  H   H13       1.0  0.24373  0.34863  0.29758  1.0000
  C   C15       1.0  0.16729  0.34318  0.86061  1.0000
  C   C16       1.0  0.06011  0.09277  0.92935  1.0000
  H   H14       1.0  0.11773  0.28430  0.85177  1.0000
  S   S2        1.0  0.11310  0.21764  0.91270  1.0000
  Fe  Fe2       1.0  0.13492  0.20324  0.97077  1.0000
  H   H15       1.0  0.20793  0.26598  0.88741  1.0000
  Fe  Fe3       1.0  0.13296  0.27806  0.94285  1.0000
  C   C17       1.0  0.13851  0.31179  0.83666  1.0000
  C   C18       1.0  0.13686  0.31584  0.79293  1.0000
  S   S3        1.0  0.07104  0.26196  0.97667  1.0000
  Fe  Fe4       1.0  0.05343  0.19982  0.95188  1.0000
  C   C19       1.0  0.21285  0.28760  0.78322  1.0000
  C   C20       1.0  0.13954  0.05389  0.98359  1.0000
  S   S4        1.0  0.16923  0.16702  0.95641  1.0000
  H   H16       1.0  0.17458  0.23544  0.81963  1.0000
  H   H17       1.0  0.11472  0.29136  0.77444  1.0000
  H   H18       1.0  0.19768  0.27434  0.75390  1.0000
  S   S5        1.0  0.17198  0.33818  0.91476  1.0000
  H   H19       1.0  0.17688  0.09592  0.93572  1.0000
  C   C21       1.0  0.15698  0.09094  0.96439  1.0000
  C   C22       1.0  0.24997  0.32139  0.85893  1.0000
  H   H20       1.0  0.08567  0.08945  0.91082  1.0000
  N   N2        1.0  0.24367  0.32582  0.78425  1.0000
  C   C23       1.0  0.14856  0.12145  0.98202  1.0000
  H   H21       1.0  0.14603  0.03043  0.96978  1.0000
  C   C24       1.0  0.19966  0.26542  0.82021  1.0000
  C   C25       1.0  0.21837  0.28253  0.85826  1.0000
  H   H22       1.0  0.03804  0.09355  0.90731  1.0000
  S   S6        1.0  0.07420  0.18237  0.00861  1.0000
  C   C26       1.0  0.16408  0.35115  0.77299  1.0000
  S   S7        1.0  0.16246  0.35451  0.71784  1.0000
  S   S8        1.0  0.16090  0.26555  0.99751  1.0000
  N   N3        1.0  0.03816  0.06074  0.95941  1.0000
  H   H23       1.0  0.07484  0.12187  0.94654  1.0000
  C   C27       1.0  0.03832  0.02496  0.95193  1.0000
  H   H24       1.0  0.23331  0.33735  0.72169  1.0000
  H   H25       1.0  0.26382  0.33522  0.88867  1.0000
  C   C28       1.0  0.26249  0.34267  0.82135  1.0000
  C   C29       1.0  0.25795  0.34841  0.74507  1.0000
  H   H26       1.0  0.28558  0.34629  0.73019  1.0000
  C   C30       1.0  0.29245  0.66062  0.27300  1.0000
  Fe  Fe5       1.0  0.29306  0.50686  0.29381  1.0000
  S   S9        1.0  0.23735  0.51287  0.32037  1.0000
  S   S10       1.0  0.35183  0.54812  0.32505  1.0000
  Fe  Fe6       1.0  0.24131  0.43424  0.23834  1.0000
  S   S11       1.0  0.18146  0.43426  0.26159  1.0000
  C   C31       1.0  0.14138  0.65277  0.44363  1.0000
  Fe  Fe7       1.0  0.21675  0.49990  0.25359  1.0000
  S   S12       1.0  0.19303  0.53416  0.21820  1.0000
  Fe  Fe8       1.0  0.20830  0.44708  0.32595  1.0000
  S   S13       1.0  0.17102  0.41934  0.38582  1.0000
  S   S14       1.0  0.27512  0.49927  0.22597  1.0000
  S   S15       1.0  0.26535  0.44161  0.30355  1.0000
  C   C32       1.0  0.19689  0.45409  0.13416  1.0000
  N   N4        1.0  0.32609  0.66195  0.29116  1.0000
  N   N5        1.0  0.17819  0.39512  0.07072  1.0000
  C   C33       1.0  0.28972  0.52274  0.50447  1.0000
  C   C34       1.0  0.17666  0.62889  0.30185  1.0000
  H   H27       1.0  0.20410  0.47687  0.15916  1.0000
  H   H28       1.0  0.16059  0.37609  0.19740  1.0000
  C   C35       1.0  0.18576  0.57002  0.25046  1.0000
  C   C36       1.0  0.18774  0.60354  0.23204  1.0000
  C   C37       1.0  0.18356  0.63314  0.25776  1.0000
  H   H29       1.0  0.39478  0.62894  0.19789  1.0000
  C   C38       1.0  0.17384  0.59499  0.32014  1.0000
  C   C39       1.0  0.17866  0.56574  0.29453  1.0000
  H   H30       1.0  0.19295  0.60683  0.19792  1.0000
  H   H31       1.0  0.16809  0.59142  0.35418  1.0000
  H   H32       1.0  0.17592  0.53945  0.30879  1.0000
  C   C40       1.0  0.20067  0.42012  0.42790  1.0000
  C   C41       1.0  0.23934  0.42068  0.41999  1.0000
  C   C42       1.0  0.26312  0.42268  0.45399  1.0000
  H   H33       1.0  0.28468  0.51816  0.39808  1.0000
  C   C43       1.0  0.15679  0.43403  0.11990  1.0000
  C   C44       1.0  0.24882  0.42499  0.49611  1.0000
  H   H34       1.0  0.25096  0.41926  0.38784  1.0000
  H   H35       1.0  0.29301  0.42311  0.44764  1.0000
  H   H36       1.0  0.18520  0.65897  0.24341  1.0000
  S   S16       1.0  0.17203  0.66563  0.33491  1.0000
  C   C45       1.0  0.43629  0.65715  0.24845  1.0000
  C   C46       1.0  0.44525  0.65384  0.29002  1.0000
  C   C47       1.0  0.41973  0.61981  0.31302  1.0000
  C   C48       1.0  0.38506  0.58917  0.29466  1.0000
  C   C49       1.0  0.37625  0.59249  0.25306  1.0000
  C   C50       1.0  0.40193  0.62633  0.22992  1.0000
  S   S17       1.0  0.24663  0.39017  0.19016  1.0000
  H   H37       1.0  0.42666  0.61747  0.34522  1.0000
  H   H38       1.0  0.34965  0.56912  0.23865  1.0000
  H   H39       1.0  0.13277  0.44128  0.13385  1.0000
  C   C51       1.0  0.22759  0.44450  0.11632  1.0000
  H   H40       1.0  0.25863  0.45923  0.12797  1.0000
  H   H41       1.0  0.11660  0.38873  0.07716  1.0000
  C   C52       1.0  0.21772  0.41494  0.08426  1.0000
  N   N6        1.0  0.30071  0.52034  0.46227  1.0000
  C   C53       1.0  0.18567  0.42098  0.46999  1.0000
  H   H42       1.0  0.34467  0.49944  0.47140  1.0000
  H   H43       1.0  0.15574  0.42043  0.47638  1.0000
  H   H44       1.0  0.19119  0.36076  0.34188  1.0000
  H   H45       1.0  0.11468  0.36268  0.31886  1.0000
  H   H46       1.0  0.26146  0.63856  0.28240  1.0000
  C   C54       1.0  0.33988  0.51915  0.45009  1.0000
  H   H47       1.0  0.30964  0.60285  0.30610  1.0000
  H   H48       1.0  0.36610  0.54945  0.45200  1.0000
  H   H49       1.0  0.19683  0.52202  0.49501  1.0000
  H   H50       1.0  0.33999  0.50715  0.41697  1.0000
  H   H51       1.0  0.21764  0.51845  0.41836  1.0000
  C   C55       1.0  0.14793  0.40449  0.08787  1.0000
  H   H52       1.0  0.24167  0.40730  0.07111  1.0000
  C   C56       1.0  0.23813  0.52054  0.44278  1.0000
  H   H53       1.0  0.29554  0.63057  0.34720  1.0000
  C   C57       1.0  0.27586  0.51997  0.43153  1.0000
  H   H54       1.0  0.12071  0.63816  0.41689  1.0000
  C   C58       1.0  0.20992  0.42394  0.50397  1.0000
  C   C59       1.0  0.31968  0.63233  0.32241  1.0000
  H   H55       1.0  0.13246  0.63091  0.46909  1.0000
  H   H56       1.0  0.34858  0.63947  0.33854  1.0000
  C   C60       1.0  0.16853  0.36489  0.03635  1.0000
  H   H57       1.0  0.17376  0.66089  0.43159  1.0000
  H   H58       1.0  0.47175  0.67757  0.30453  1.0000
  C   C61       1.0  0.22638  0.52238  0.48575  1.0000
  C   C62       1.0  0.29755  0.68758  0.24202  1.0000
  H   H59       1.0  0.51554  0.62746  0.47510  1.0000
  H   H60       1.0  0.27081  0.68677  0.22792  1.0000
  N   N7        1.0  0.13831  0.68857  0.45892  1.0000
  C   C63       1.0  0.20217  0.35658  0.16412  1.0000
  C   C64       1.0  0.19390  0.37883  0.84083  1.0000
  Fe  Fe9       1.0  0.28902  0.48662  0.68794  1.0000
  S   S18       1.0  0.22457  0.47104  0.71451  1.0000
  S   S19       1.0  0.34055  0.52598  0.72957  1.0000
  Fe  Fe10      1.0  0.25943  0.44299  0.60370  1.0000
  S   S20       1.0  0.19267  0.42355  0.62360  1.0000
  S   S21       1.0  0.28130  0.43154  0.53781  1.0000
  Fe  Fe11      1.0  0.21496  0.48544  0.64969  1.0000
  S   S22       1.0  0.18340  0.52133  0.63478  1.0000
  Fe  Fe12      1.0  0.20866  0.41070  0.68630  1.0000
  C   C65       1.0  0.25239  0.52378  0.51686  1.0000
  S   S23       1.0  0.28057  0.50620  0.62543  1.0000
  S   S24       1.0  0.27416  0.42476  0.66447  1.0000
  N   N8        1.0  0.12124  0.44349  0.72958  1.0000
  H   H61       1.0  0.12851  0.49827  0.70693  1.0000
  C   C66       1.0  0.19243  0.38279  0.79704  1.0000
  H   H62       1.0  0.17170  0.37827  0.00503  1.0000
  H   H63       1.0  0.21352  0.41014  0.78189  1.0000
  C   C67       1.0  0.20389  0.56651  0.66375  1.0000
  C   C68       1.0  0.22899  0.57237  0.69771  1.0000
  C   C69       1.0  0.24309  0.60758  0.72241  1.0000
  C   C70       1.0  0.19417  0.59650  0.65364  1.0000
  H   H64       1.0  0.23717  0.54967  0.70539  1.0000
  H   H65       1.0  0.17497  0.59221  0.62726  1.0000
  C   C71       1.0  0.44528  0.62655  0.65616  1.0000
  C   C72       1.0  0.43883  0.63061  0.70014  1.0000
  C   C73       1.0  0.40729  0.59919  0.72273  1.0000
  C   C74       1.0  0.38143  0.56404  0.70125  1.0000
  C   C75       1.0  0.38786  0.55999  0.65728  1.0000
  C   C76       1.0  0.41994  0.59109  0.63483  1.0000
  H   H66       1.0  0.19857  0.42585  0.53609  1.0000
  H   H67       1.0  0.40260  0.60229  0.75680  1.0000
  H   H68       1.0  0.36862  0.53261  0.64067  1.0000
  H   H69       1.0  0.42500  0.58771  0.60088  1.0000
  H   H70       1.0  0.24314  0.52462  0.55036  1.0000
  H   H71       1.0  0.13941  0.67831  0.52466  1.0000
  H   H72       1.0  0.11073  0.39574  0.68490  1.0000
  S   S25       1.0  0.48448  0.66537  0.62712  1.0000
  H   H73       1.0  0.17070  0.50292  0.83161  1.0000
  H   H74       1.0  0.21621  0.40318  0.85931  1.0000
  C   C77       1.0  0.23331  0.63758  0.71234  1.0000
  H   H75       1.0  0.30921  0.52251  0.52881  1.0000
  H   H76       1.0  0.20202  0.65532  0.66928  1.0000
  H   H77       1.0  0.45837  0.65774  0.71684  1.0000
  H   H78       1.0  0.32514  0.66853  0.79154  1.0000
  C   C78       1.0  0.15620  0.48611  0.80326  1.0000
  C   C79       1.0  0.15080  0.50521  0.76954  1.0000
  C   C80       1.0  0.13266  0.48319  0.73295  1.0000
  C   C81       1.0  0.35702  0.64809  0.67137  1.0000
  H   H79       1.0  0.16109  0.53696  0.77134  1.0000
  C   C82       1.0  0.20938  0.63223  0.67752  1.0000
  C   C83       1.0  0.10342  0.42114  0.69048  1.0000
  H   H80       1.0  0.11534  0.39266  0.76068  1.0000
  H   H81       1.0  0.14693  0.43006  0.82622  1.0000
  H   H82       1.0  0.26164  0.61159  0.74926  1.0000
  C   C84       1.0  0.14295  0.44531  0.80023  1.0000
  H   H83       1.0  0.28673  0.37304  0.82226  1.0000
  S   S26       1.0  0.25077  0.68123  0.74391  1.0000
  H   H84       1.0  0.34913  0.63313  0.73710  1.0000
  H   H85       1.0  0.35799  0.62099  0.66007  1.0000
  C   C85       1.0  0.35195  0.65512  0.71497  1.0000
  H   H86       1.0  0.11663  0.44010  0.66217  1.0000
  C   C86       1.0  0.12519  0.42430  0.76300  1.0000
  H   H87       1.0  0.06926  0.40981  0.69269  1.0000
  H   H88       1.0  0.26607  0.38012  0.75182  1.0000
  H   H89       1.0  0.51979  0.64017  0.55351  1.0000
  C   C87       1.0  0.36120  0.67635  0.64262  1.0000
  H   H90       1.0  0.36565  0.67139  0.60879  1.0000
  N   N9        1.0  0.35032  0.68908  0.72945  1.0000
  S   S27       1.0  0.07725  0.89615  0.04999  1.0000
  H   H91       1.0  0.08762  0.81496  0.17848  1.0000
  S   S28       1.0  0.09097  0.00137  0.04530  1.0000
  C   C88       1.0  0.13888  0.71421  0.42994  1.0000
  H   H92       1.0  0.10413  0.84596  0.10778  1.0000
  C   C89       1.0  0.13853  0.75948  0.48687  1.0000
  H   H93       1.0  0.14035  0.70740  0.39612  1.0000
  C   C90       1.0  0.37159  0.71667  0.24784  1.0000
  C   C91       1.0  0.13774  0.69756  0.50162  1.0000
  H   H94       1.0  0.52655  0.91189  0.24928  1.0000
  C   C92       1.0  0.52313  0.75483  0.49953  1.0000
  C   C93       1.0  0.13907  0.75006  0.44344  1.0000
  H   H95       1.0  0.14121  0.77108  0.42036  1.0000
  Fe  Fe13      1.0  0.13549  0.89363  0.02480  1.0000
  H   H96       1.0  0.39207  0.69105  0.29364  1.0000
  S   S29       1.0  0.24892  0.83726  0.27877  1.0000
  H   H97       1.0  0.34175  0.73612  0.20467  1.0000
  C   C94       1.0  0.46516  0.83580  0.50625  1.0000
  H   H98       1.0  0.19889  0.88814  0.26377  1.0000
  S   S30       1.0  0.46546  0.70095  0.22076  1.0000
  S   S31       1.0  0.20681  0.74465  0.23872  1.0000
  S   S32       1.0  0.48556  0.86553  0.32026  1.0000
  C   C95       1.0  0.33742  0.71547  0.22913  1.0000
  H   H99       1.0  0.14499  0.89843  0.23132  1.0000
  C   C96       1.0  0.20591  0.90325  0.23381  1.0000
  C   C97       1.0  0.39321  0.82264  0.49854  1.0000
  C   C98       1.0  0.11765  0.82296  0.16238  1.0000
  C   C99       1.0  0.12696  0.84052  0.12240  1.0000
  H   H100      1.0  0.32915  0.81040  0.49493  1.0000
  H   H101      1.0  0.26815  0.90983  0.22618  1.0000
  C   C100      1.0  0.52997  0.89071  0.18514  1.0000
  C   C101      1.0  0.14743  0.81671  0.18218  1.0000
  H   H102      1.0  0.39838  0.82171  0.46418  1.0000
  H   H103      1.0  0.11954  0.90915  0.16728  1.0000
  H   H104      1.0  0.22728  0.95085  0.12411  1.0000
  S   S33       1.0  0.17175  0.76613  0.33042  1.0000
  H   H105      1.0  0.49835  0.88415  0.17929  1.0000
  S   S34       1.0  0.13718  0.80043  0.23489  1.0000
  H   H106      1.0  0.46588  0.80683  0.50292  1.0000
  S   S35       1.0  0.24937  0.84339  0.40617  1.0000
  C   C102      1.0  0.15108  0.93200  0.15708  1.0000
  H   H107      1.0  0.15414  0.96183  0.16635  1.0000
  Fe  Fe14      1.0  0.51573  0.82588  0.30695  1.0000
  H   H108      1.0  0.14037  0.78787  0.49763  1.0000
  S   S36       1.0  0.32561  0.80322  0.21447  1.0000
  S   S37       1.0  0.48106  0.76269  0.32545  1.0000
  C   C103      1.0  0.24193  0.77655  0.44303  1.0000
  H   H109      1.0  0.22587  0.85342  0.10582  1.0000
  Fe  Fe15      1.0  0.26944  0.79123  0.25762  1.0000
  H   H110      1.0  0.25153  0.86038  0.49663  1.0000
  C   C104      1.0  0.43973  0.82985  0.25100  1.0000
  C   C105      1.0  0.40476  0.81734  0.22696  1.0000
  Fe  Fe16      1.0  0.19886  0.72589  0.30645  1.0000
  H   H111      1.0  0.20909  0.82186  0.17610  1.0000
  C   C106      1.0  0.44129  0.84890  0.29070  1.0000
  H   H112      1.0  0.40395  0.80314  0.19600  1.0000
  H   H113      1.0  0.15356  0.92933  0.12171  1.0000
  C   C107      1.0  0.18603  0.82672  0.16110  1.0000
  H   H114      1.0  0.34528  0.84463  0.29620  1.0000
  C   C108      1.0  0.16630  0.85233  0.10235  1.0000
  C   C109      1.0  0.24465  0.91514  0.21254  1.0000
  H   H115      1.0  0.28224  0.94134  0.15590  1.0000
  C   C110      1.0  0.25255  0.93281  0.17311  1.0000
  C   C111      1.0  0.22134  0.93814  0.15534  1.0000
  Fe  Fe17      1.0  0.23703  0.80981  0.34295  1.0000
  Fe  Fe18      1.0  0.10131  0.95198  0.01307  1.0000
  H   H116      1.0  0.40857  0.86960  0.33731  1.0000
  N   N10       1.0  0.18323  0.92586  0.17615  1.0000
  C   C112      1.0  0.19545  0.84457  0.12131  1.0000
  C   C113      1.0  0.17543  0.90902  0.21513  1.0000
  S   S38       1.0  0.26362  0.76828  0.32284  1.0000
  C   C114      1.0  0.24776  0.83053  0.49137  1.0000
  H   H117      1.0  0.46555  0.82501  0.23856  1.0000
  Fe  Fe19      1.0  0.50755  0.74977  0.26366  1.0000
  C   C115      1.0  0.37036  0.82199  0.24351  1.0000
  C   C116      1.0  0.24666  0.81506  0.44961  1.0000
  H   H118      1.0  0.24084  0.76424  0.41114  1.0000
  Fe  Fe20      1.0  0.18559  0.78921  0.26422  1.0000
  H   H119      1.0  0.47208  0.84922  0.47438  1.0000
  C   C117      1.0  0.37168  0.84070  0.28341  1.0000
  H   H120      1.0  0.23300  0.72333  0.47239  1.0000
  S   S39       1.0  0.18160  0.88045  0.05602  1.0000
  H   H121      1.0  0.40285  0.73809  0.23797  1.0000
  C   C118      1.0  0.23735  0.75334  0.47784  1.0000
  C   C119      1.0  0.40747  0.85483  0.30664  1.0000
  H   H122      1.0  0.50871  0.72285  0.50049  1.0000
  C   C120      1.0  0.36529  0.68972  0.27925  1.0000
  H   H123      1.0  0.44267  0.83621  0.58877  1.0000
  S   S40       1.0  0.47970  0.76274  0.65771  1.0000
  S   S41       1.0  0.45275  0.78505  0.77532  1.0000
  H   H124      1.0  0.37779  0.78940  0.80295  1.0000
  Fe  Fe21      1.0  0.29092  0.81557  0.69272  1.0000
  S   S42       1.0  0.25168  0.78459  0.75012  1.0000
  S   S43       1.0  0.35598  0.86389  0.69453  1.0000
  Fe  Fe22      1.0  0.23155  0.75845  0.62992  1.0000
  S   S44       1.0  0.18652  0.72224  0.68180  1.0000
  S   S45       1.0  0.22482  0.73578  0.56171  1.0000
  Fe  Fe23      1.0  0.19911  0.78085  0.71387  1.0000
  S   S46       1.0  0.14446  0.78422  0.74953  1.0000
  Fe  Fe24      1.0  0.24246  0.72897  0.71367  1.0000
  S   S47       1.0  0.52291  0.73808  0.73095  1.0000
  S   S48       1.0  0.23933  0.81688  0.65872  1.0000
  S   S49       1.0  0.28638  0.76029  0.65955  1.0000
  S   S50       1.0  0.07137  0.92241  0.95233  1.0000
  C   C121      1.0  0.06458  0.87930  0.82454  1.0000
  Fe  Fe25      1.0  0.12978  0.91685  0.93587  1.0000
  S   S51       1.0  0.16420  0.92904  0.87147  1.0000
  H   H125      1.0  0.22103  0.93089  0.93111  1.0000
  H   H126      1.0  0.16272  0.77936  0.93073  1.0000
  C   C122      1.0  0.15446  0.82404  0.78582  1.0000
  C   C123      1.0  0.12914  0.81766  0.82325  1.0000
  C   C124      1.0  0.13319  0.84956  0.85064  1.0000
  C   C125      1.0  0.16212  0.88815  0.84041  1.0000
  C   C126      1.0  0.18811  0.89449  0.80339  1.0000
  C   C127      1.0  0.18458  0.86242  0.77629  1.0000
  H   H127      1.0  0.10565  0.78801  0.83056  1.0000
  H   H128      1.0  0.11253  0.84432  0.87851  1.0000
  H   H129      1.0  0.21045  0.92432  0.79517  1.0000
  H   H130      1.0  0.20396  0.86757  0.74720  1.0000
  H   H131      1.0  0.24131  0.84114  0.82325  1.0000
  H   H132      1.0  0.24212  0.81870  0.55846  1.0000
  H   H133      1.0  0.18495  0.84321  0.97075  1.0000
  H   H134      1.0  0.35304  0.74386  0.71294  1.0000
  Fe  Fe26      1.0  0.51115  0.72451  0.66174  1.0000
  H   H135      1.0  0.10706  0.86581  0.72888  1.0000
  C   C128      1.0  0.42777  0.80978  0.75477  1.0000
  C   C129      1.0  0.44416  0.83186  0.71794  1.0000
  C   C130      1.0  0.42297  0.85004  0.70050  1.0000
  C   C131      1.0  0.38473  0.84506  0.71907  1.0000
  C   C132      1.0  0.36845  0.82305  0.75594  1.0000
  C   C133      1.0  0.39034  0.80609  0.77425  1.0000
  H   H136      1.0  0.47331  0.83518  0.70297  1.0000
  H   H137      1.0  0.43582  0.86726  0.67218  1.0000
  H   H138      1.0  0.33918  0.81951  0.77067  1.0000
  Fe  Fe27      1.0  0.49752  0.78110  0.72493  1.0000
  N   N11       1.0  0.22548  0.87746  0.91993  1.0000
  C   C134      1.0  0.24096  0.87706  0.87903  1.0000
  C   C135      1.0  0.19769  0.84290  0.93848  1.0000
  C   C136      1.0  0.22937  0.84131  0.85588  1.0000
  C   C137      1.0  0.18506  0.80665  0.91605  1.0000
  C   C138      1.0  0.35437  0.71697  0.70147  1.0000
  H   H139      1.0  0.26187  0.90456  0.86381  1.0000
  C   C139      1.0  0.35976  0.71102  0.65768  1.0000
  H   H140      1.0  0.52928  0.78330  0.81064  1.0000
  C   C140      1.0  0.34628  0.69640  0.77534  1.0000
  H   H141      1.0  0.31662  0.81192  0.57355  1.0000
  H   H142      1.0  0.37386  0.82525  0.62052  1.0000
  H   H143      1.0  0.19112  0.77816  0.85633  1.0000
  S   S52       1.0  0.16203  0.95232  0.99327  1.0000
  C   C141      1.0  0.08663  0.85892  0.75744  1.0000
  C   C142      1.0  0.23761  0.91546  0.94305  1.0000
  H   H144      1.0  0.27153  0.93465  0.93863  1.0000
  C   C143      1.0  0.20110  0.80593  0.87449  1.0000
  H   H145      1.0  0.37728  0.70952  0.78894  1.0000
  H   H146      1.0  0.23006  0.91150  0.97784  1.0000
  S   S53       1.0  0.10701  0.85837  0.96613  1.0000
  C   C144      1.0  0.05902  0.81965  0.76622  1.0000
  C   C145      1.0  0.23676  0.76816  0.51953  1.0000
  H   H147      1.0  0.05810  0.79595  0.74455  1.0000
  Fe  Fe28      1.0  0.05116  0.86675  0.98783  1.0000
  H   H148      1.0  0.36276  0.73317  0.63572  1.0000
  C   C146      1.0  0.24265  0.80706  0.52637  1.0000
  C   C147      1.0  0.08936  0.88901  0.78664  1.0000
  C   C148      1.0  0.34693  0.81697  0.55981  1.0000
  C   C149      1.0  0.37903  0.82431  0.58618  1.0000
  H   H149      1.0  0.11208  0.91946  0.78109  1.0000
  N   N12       1.0  0.03730  0.84073  0.83274  1.0000
  H   H150      1.0  0.06850  0.90270  0.84799  1.0000
  C   C150      1.0  0.03452  0.81101  0.80434  1.0000
  H   H151      1.0  0.51594  0.76245  0.56742  1.0000
  C   C151      1.0  0.41788  0.83069  0.56800  1.0000
  H   H152      1.0  0.13885  0.74066  0.55002  1.0000
  H   H153      1.0  0.33253  0.71709  0.78204  1.0000
  H   H154      1.0  0.03075  0.82387  0.89685  1.0000
  C   C152      1.0  0.35397  0.81609  0.51569  1.0000
  C   C153      1.0  0.13746  0.73295  0.51624  1.0000
  H   H155      1.0  0.52627  0.84668  0.82076  1.0000
  N   N13       1.0  0.42464  0.83024  0.52467  1.0000
  C   C154      1.0  0.52722  0.77725  0.53748  1.0000
  H   H156      1.0  0.05645  0.02066  0.92508  1.0000
  H   H157      1.0  0.49057  0.85601  0.52677  1.0000
  H   H158      1.0  0.92296  0.09074  0.05186  1.0000
  C   C155      1.0  0.92868  0.08681  0.01810  1.0000
  C   C156      1.0  0.99309  0.03564  0.02193  1.0000
  H   H159      1.0  0.97528  0.04014  0.04904  1.0000
  C   C157      1.0  0.81418  0.03265  0.91626  1.0000
  C   C158      1.0  0.91489  0.04462  0.95463  1.0000
  H   H160      1.0  0.88228  0.12316  0.95093  1.0000
  C   C159      1.0  0.81877  0.06186  0.98843  1.0000
  C   C160      1.0  0.94327  0.07710  0.93096  1.0000
  C   C161      1.0  0.96388  0.11461  0.95068  1.0000
  S   S54       1.0  0.99617  0.15550  0.91975  1.0000
  C   C162      1.0  0.86181  0.06864  0.85860  1.0000
  H   H161      1.0  0.90803  0.12755  0.87573  1.0000
  H   H162      1.0  0.94873  0.07327  0.89715  1.0000
  C   C163      1.0  0.95690  0.11936  0.99440  1.0000
  C   C164      1.0  0.88108  0.10095  0.88656  1.0000
  H   H163      1.0  0.01612  0.09467  0.99995  1.0000
  C   C165      1.0  0.86644  0.09823  0.92922  1.0000
  N   N14       1.0  0.83386  0.06411  0.94370  1.0000
  C   C166      1.0  0.90715  0.04951  0.99818  1.0000
  C   C167      1.0  0.01596  0.06630  0.99386  1.0000
  H   H164      1.0  0.87316  0.07012  0.82557  1.0000
  C   C168      1.0  0.82799  0.03431  0.87342  1.0000
  H   H165      1.0  0.80669  0.03125  0.99995  1.0000
  H   H166      1.0  0.79377  0.07105  0.99224  1.0000
  H   H167      1.0  0.84427  0.08096  0.00934  1.0000
  H   H168      1.0  0.97267  0.14828  0.00983  1.0000
  C   C169      1.0  0.53834  0.65560  0.48780  1.0000
  C   C170      1.0  0.56470  0.68530  0.46030  1.0000
  H   H169      1.0  0.56200  0.68080  0.42608  1.0000
  C   C171      1.0  0.54069  0.66272  0.53170  1.0000
  Fe  Fe29      1.0  0.59266  0.81852  0.27457  1.0000
  S   S55       1.0  0.57372  0.83740  0.33804  1.0000
  S   S56       1.0  0.65739  0.85657  0.24690  1.0000
  H   H170      1.0  0.57454  0.86937  0.49662  1.0000
  C   C172      1.0  0.99339  0.99921  0.01478  1.0000
  H   H171      1.0  0.72259  0.80003  0.09556  1.0000
  S   S57       1.0  0.87006  0.01013  0.02842  1.0000
  H   H172      1.0  0.64151  0.91325  0.20814  1.0000
  S   S58       1.0  0.56495  0.75421  0.29073  1.0000
  H   H173      1.0  0.61187  0.74541  0.45543  1.0000
  Fe  Fe30      1.0  0.54081  0.77262  0.35151  1.0000
  S   S59       1.0  0.68566  0.83907  0.04740  1.0000
  C   C173      1.0  0.75188  0.80257  0.08157  1.0000
  H   H174      1.0  0.97652  0.97542  0.03677  1.0000
  C   C174      1.0  0.55997  0.83737  0.49747  1.0000
  C   C175      1.0  0.78761  0.82312  0.10441  1.0000
  N   N15       1.0  0.58516  0.91291  0.23318  1.0000
  S   S60       1.0  0.80980  0.89460  0.01965  1.0000
  C   C176      1.0  0.67852  0.84510  0.10274  1.0000
  C   C177      1.0  0.64099  0.81905  0.12333  1.0000
  C   C178      1.0  0.63442  0.82216  0.16759  1.0000
  C   C179      1.0  0.66552  0.85123  0.19157  1.0000
  C   C180      1.0  0.70316  0.87727  0.17102  1.0000
  C   C181      1.0  0.70969  0.87427  0.12663  1.0000
  H   H175      1.0  0.61688  0.79623  0.10503  1.0000
  H   H176      1.0  0.60538  0.80184  0.18317  1.0000
  H   H177      1.0  0.72727  0.89990  0.18948  1.0000
  H   H178      1.0  0.73878  0.89439  0.11098  1.0000
  H   H179      1.0  0.85361  0.84300  0.10373  1.0000
  H   H180      1.0  0.56758  0.82959  0.42959  1.0000
  S   S61       1.0  0.53711  0.81246  0.24231  1.0000
  C   C182      1.0  0.82735  0.81026  0.04622  1.0000
  H   H181      1.0  0.61760  0.96057  0.27618  1.0000
  C   C183      1.0  0.59507  0.89133  0.16186  1.0000
  H   H182      1.0  0.57537  0.91772  0.30056  1.0000
  C   C184      1.0  0.60103  0.92774  0.27542  1.0000
  H   H183      1.0  0.62258  0.91604  0.28366  1.0000
  H   H184      1.0  0.61455  0.88525  0.13773  1.0000
  C   C185      1.0  0.59304  0.72189  0.47716  1.0000
  C   C186      1.0  0.61008  0.90688  0.20190  1.0000
  N   N16       1.0  0.75391  0.78633  0.04203  1.0000
  C   C187      1.0  0.55586  0.81487  0.45947  1.0000
  H   H185      1.0  0.85674  0.81335  0.03179  1.0000
  C   C188      1.0  0.82556  0.82690  0.08656  1.0000
  C   C189      1.0  0.79103  0.79017  0.02416  1.0000
  H   H186      1.0  0.78580  0.83635  0.13552  1.0000
  C   C190      1.0  0.55457  0.88282  0.15365  1.0000
  C   C191      1.0  0.54601  0.90620  0.22485  1.0000
  C   C192      1.0  0.53789  0.77356  0.46049  1.0000
  H   H187      1.0  0.68787  0.75905  0.03801  1.0000
  H   H188      1.0  0.54224  0.86996  0.12304  1.0000
  S   S62       1.0  0.53581  0.74468  0.41412  1.0000
  C   C193      1.0  0.71662  0.76610  0.01764  1.0000
  Fe  Fe31      1.0  0.58344  0.78859  0.70939  1.0000
  S   S63       1.0  0.55868  0.83283  0.70821  1.0000
  S   S64       1.0  0.63983  0.79517  0.74153  1.0000
  C   C194      1.0  0.56940  0.69965  0.54749  1.0000
  H   H189      1.0  0.79282  0.77806  0.99241  1.0000
  H   H190      1.0  0.81252  0.00896  0.85201  1.0000
  S   S65       1.0  0.57407  0.77094  0.64019  1.0000
  Fe  Fe32      1.0  0.76488  0.92035  0.92411  1.0000
  N   N17       1.0  0.58302  0.80185  0.84652  1.0000
  S   S66       1.0  0.73528  0.93613  0.87265  1.0000
  Fe  Fe33      1.0  0.81275  0.87776  0.95056  1.0000
  S   S67       1.0  0.83414  0.83330  0.92512  1.0000
  C   C195      1.0  0.55232  0.80689  0.82934  1.0000
  S   S68       1.0  0.74524  0.85838  0.94283  1.0000
  S   S69       1.0  0.83298  0.93839  0.92565  1.0000
  C   C196      1.0  0.87819  0.83107  0.94168  1.0000
  H   H191      1.0  0.91393  0.76262  0.94326  1.0000
  C   C197      1.0  0.87974  0.79507  0.93523  1.0000
  C   C198      1.0  0.54605  0.81861  0.53657  1.0000
  H   H192      1.0  0.01733  0.96584  0.97449  1.0000
  C   C199      1.0  0.66778  0.83602  0.77556  1.0000
  C   C200      1.0  0.66204  0.87008  0.77758  1.0000
  C   C201      1.0  0.68408  0.90142  0.80633  1.0000
  C   C202      1.0  0.71103  0.89835  0.83393  1.0000
  C   C203      1.0  0.71711  0.86453  0.83138  1.0000
  C   C204      1.0  0.69580  0.83366  0.80212  1.0000
  H   H193      1.0  0.64079  0.87233  0.75695  1.0000
  H   H194      1.0  0.67948  0.92765  0.80786  1.0000
  H   H195      1.0  0.73855  0.86222  0.85165  1.0000
  H   H196      1.0  0.70081  0.80763  0.80032  1.0000
  S   S70       1.0  0.55209  0.84699  0.58401  1.0000
  H   H197      1.0  0.57862  0.90140  0.86394  1.0000
  H   H198      1.0  0.97140  0.88427  0.98698  1.0000
  C   C205      1.0  0.01351  0.83079  0.87372  1.0000
  C   C206      1.0  0.91348  0.79088  0.94798  1.0000
  C   C207      1.0  0.62407  0.76766  0.53730  1.0000
  C   C208      1.0  0.91114  0.86339  0.96068  1.0000
  C   C209      1.0  0.57944  0.87324  0.85966  1.0000
  S   S71       1.0  0.98824  0.81524  0.98098  1.0000
  C   C210      1.0  0.55028  0.84272  0.83527  1.0000
  Fe  Fe34      1.0  0.82542  0.95440  0.99446  1.0000
  H   H199      1.0  0.63549  0.82736  0.88504  1.0000
  C   C211      1.0  0.01609  0.99375  0.97958  1.0000
  C   C212      1.0  0.94676  0.82295  0.96629  1.0000
  C   C213      1.0  0.58478  0.76413  0.83987  1.0000
  H   H200      1.0  0.91007  0.89132  0.96572  1.0000
  H   H201      1.0  0.00771  0.85560  0.88733  1.0000
  H   H202      1.0  0.98262  0.80475  0.87050  1.0000
  H   H203      1.0  0.57015  0.70510  0.58169  1.0000
  C   C214      1.0  0.94584  0.85946  0.97249  1.0000
  H   H204      1.0  0.61736  0.76876  0.83911  1.0000
  H   H205      1.0  0.85446  0.77005  0.92055  1.0000
  C   C215      1.0  0.60984  0.86741  0.87822  1.0000
  H   H206      1.0  0.63500  0.76532  0.56854  1.0000
  S   S72       1.0  0.75873  0.94148  0.99115  1.0000
  Fe  Fe35      1.0  0.54335  0.81033  0.64075  1.0000
  H   H207      1.0  0.63324  0.89114  0.89661  1.0000
  C   C216      1.0  0.61109  0.83125  0.87139  1.0000
  H   H208      1.0  0.01414  0.78031  0.81159  1.0000
  H   H209      1.0  0.56620  0.74359  0.86556  1.0000
  H   H210      1.0  0.78774  0.00589  0.92735  1.0000
  H   H211      1.0  0.60827  0.78678  0.54161  1.0000
  H   H212      1.0  0.57294  0.75015  0.80849  1.0000
  H   H213      1.0  0.89890  0.01596  0.93908  1.0000
  N   N18       1.0  0.59543  0.72854  0.52027  1.0000
  H   H214      1.0  0.71770  0.78557  0.99217  1.0000
  H   H215      1.0  0.71440  0.73793  0.00294  1.0000
  H   H216      1.0  0.65192  0.78244  0.51543  1.0000
  Fe  Fe36      1.0  0.74373  0.88031  0.01018  1.0000
