data_image0
_chemical_formula_structural       CFeSHC2NCSCSCSCHCFeC2NC2H2CNH2CHCH4CH2SHSH3SC2NHSC4HCSCH2C2HC2HNC3FeHCH3SC2HCSHC2NHSCH2C4SCH5CHCH2CSCH5CNHC2H2C2SCFeH2FeHC2HCHC4HCHSCH3C2SC2HC2H2SHSC3HFeH4C2HFeCHCFeHFeHCH4CSCS2FeCHSH3CHC2SH2Fe3HC4SHCSHCHSCFeC2HC2H2CHFeH2FeSNHCSH2CSNSCHSH2SCHCH2C3HCH3FeHCSCH3C2HC3H2SH3SHC2HC2HCFeHCHCSHSCFe2CHC3H2SH3C3NCS2HCHCFeH2CFeCHCSCHCSHFeNHCSC2HSCH2FeC2FeCSHC2SC2HCH6CSCS2NSCSC2HSCFe2H2CSFeCH3C2HNC2HCH2SCSH4C2HNHCHC2H2FeCHCS2NHC3SCFeSHSH2C4H4C3HC2H2CHCFeH5CH2C6H2SH2C2NS2HC2H2Fe
_chemical_formula_sum              "C192 Fe32 S64 H192 N16"
_cell_length_a       18.6173
_cell_length_b       10.7347
_cell_length_c       35.7988
_cell_angle_alpha    94.3479
_cell_angle_beta     88.2601
_cell_angle_gamma    73.4721

_space_group_name_H-M_alt    "P 1"
_space_group_IT_number       1

loop_
  _space_group_symop_operation_xyz
  'x, y, z'

loop_
  _atom_site_type_symbol
  _atom_site_label
  _atom_site_symmetry_multiplicity
  _atom_site_fract_x
  _atom_site_fract_y
  _atom_site_fract_z
  _atom_site_occupancy
  C   C1        1.0  0.00847  0.15253  0.52347  1.0000
  Fe  Fe1       1.0  0.28761  0.36124  0.38911  1.0000
  S   S1        1.0  0.26272  0.46183  0.44708  1.0000
  H   H1        1.0  0.29594  0.07640  0.37043  1.0000
  C   C2        1.0  0.01476  0.22933  0.41849  1.0000
  C   C3        1.0  0.94209  0.98567  0.31734  1.0000
  N   N1        1.0  0.42542  0.17606  0.48611  1.0000
  C   C4        1.0  0.10294  0.05974  0.37844  1.0000
  S   S2        1.0  0.40304  0.22701  0.37242  1.0000
  C   C5        1.0  0.95700  0.27682  0.52859  1.0000
  S   S3        1.0  0.12773  0.30061  0.49295  1.0000
  C   C6        1.0  0.35977  0.03680  0.53195  1.0000
  S   S4        1.0  0.18530  0.29405  0.38955  1.0000
  C   C7        1.0  0.35676  0.16063  0.47839  1.0000
  H   H2        1.0  0.97654  0.26333  0.32814  1.0000
  C   C8        1.0  0.00434  0.22308  0.35256  1.0000
  Fe  Fe2       1.0  0.15635  0.40596  0.44569  1.0000
  C   C9        1.0  0.34553  0.02249  0.35392  1.0000
  C   C10       1.0  0.07711  0.11869  0.41431  1.0000
  N   N2        1.0  0.97748  0.27686  0.38791  1.0000
  C   C11       1.0  0.15856  0.35582  0.53519  1.0000
  C   C12       1.0  0.32191  0.09445  0.50186  1.0000
  H   H3        1.0  0.05998  0.13406  0.53817  1.0000
  H   H4        1.0  0.99711  0.27815  0.44626  1.0000
  C   C13       1.0  0.06752  0.11408  0.34732  1.0000
  N   N3        1.0  0.99432  0.05630  0.50014  1.0000
  H   H5        1.0  0.26710  0.08357  0.49586  1.0000
  H   H6        1.0  0.96951  0.35402  0.54626  1.0000
  C   C14       1.0  0.17844  0.27175  0.56364  1.0000
  H   H7        1.0  0.10727  0.08229  0.43855  1.0000
  C   C15       1.0  0.40730  0.07132  0.35129  1.0000
  H   H8        1.0  0.32889  0.19764  0.45373  1.0000
  H   H9        1.0  0.41676  0.32314  0.44818  1.0000
  H   H10       1.0  0.08834  0.07117  0.31929  1.0000
  H   H11       1.0  0.17513  0.17272  0.55964  1.0000
  C   C16       1.0  0.43193  0.04532  0.53808  1.0000
  H   H12       1.0  0.15192  0.97501  0.37467  1.0000
  H   H13       1.0  0.33435  0.98140  0.54964  1.0000
  S   S5        1.0  0.06298  0.46663  0.31563  1.0000
  H   H14       1.0  0.22114  0.24831  0.61872  1.0000
  S   S6        1.0  0.36601  0.03228  0.62731  1.0000
  H   H15       1.0  0.06247  0.37953  0.63329  1.0000
  H   H16       1.0  0.27642  0.10306  0.74747  1.0000
  H   H17       1.0  0.13456  0.40497  0.68890  1.0000
  S   S7        1.0  0.00789  0.07792  0.61644  1.0000
  C   C17       1.0  0.20886  0.44249  0.60284  1.0000
  C   C18       1.0  0.07280  0.07907  0.78823  1.0000
  N   N4        1.0  0.04148  0.43130  0.72804  1.0000
  H   H18       1.0  0.30120  0.23341  0.69794  1.0000
  S   S8        1.0  0.16576  0.98328  0.77884  1.0000
  C   C19       1.0  0.94912  0.17903  0.76653  1.0000
  C   C20       1.0  0.30641  0.46453  0.81267  1.0000
  C   C21       1.0  0.08522  0.43910  0.76108  1.0000
  C   C22       1.0  0.96743  0.43677  0.73282  1.0000
  H   H19       1.0  0.38613  0.35186  0.61689  1.0000
  C   C23       1.0  0.20477  0.31440  0.59711  1.0000
  S   S9        1.0  0.17528  0.08391  0.67863  1.0000
  C   C24       1.0  0.33325  0.09277  0.75566  1.0000
  H   H20       1.0  0.10524  0.34146  0.77200  1.0000
  H   H21       1.0  0.38235  0.28903  0.69823  1.0000
  C   C25       1.0  0.07558  0.41142  0.69280  1.0000
  C   C26       1.0  0.42214  0.41554  0.61590  1.0000
  H   H22       1.0  0.04257  0.06271  0.73084  1.0000
  C   C27       1.0  0.02346  0.10247  0.75915  1.0000
  C   C28       1.0  0.03522  0.39678  0.66119  1.0000
  H   H23       1.0  0.30653  0.36060  0.73317  1.0000
  N   N5        1.0  0.37323  0.17061  0.74240  1.0000
  C   C29       1.0  0.36537  0.99749  0.77962  1.0000
  C   C30       1.0  0.33902  0.26862  0.71683  1.0000
  C   C31       1.0  0.95985  0.40146  0.66581  1.0000
  Fe  Fe3       1.0  0.11302  0.97419  0.64305  1.0000
  H   H24       1.0  0.94053  0.45113  0.76082  1.0000
  C   C32       1.0  0.43655  0.45567  0.80058  1.0000
  H   H25       1.0  0.29541  0.11772  0.97922  1.0000
  H   H26       1.0  0.18774  0.14264  0.93813  1.0000
  H   H27       1.0  0.00164  0.04060  0.03618  1.0000
  S   S10       1.0  0.04025  0.46164  0.86842  1.0000
  C   C33       1.0  0.34198  0.12578  0.88416  1.0000
  C   C34       1.0  0.16151  0.97092  0.95449  1.0000
  H   H28       1.0  0.13272  0.27591  0.01943  1.0000
  C   C35       1.0  0.16476  0.41205  0.05798  1.0000
  S   S11       1.0  0.09000  0.98213  0.92285  1.0000
  H   H29       1.0  0.03424  0.13434  0.00300  1.0000
  C   C36       1.0  0.97377  0.21316  0.83180  1.0000
  C   C37       1.0  0.94727  0.32476  0.04858  1.0000
  N   N6        1.0  0.32599  0.99966  0.88294  1.0000
  H   H30       1.0  0.33242  0.16724  0.85669  1.0000
  S   S12       1.0  0.02192  0.43263  0.97471  1.0000
  C   C38       1.0  0.20249  0.06217  0.95562  1.0000
  H   H31       1.0  0.40020  0.31039  0.82778  1.0000
  H   H32       1.0  0.33865  0.24555  0.04091  1.0000
  C   C39       1.0  0.04777  0.13399  0.82463  1.0000
  C   C40       1.0  0.12475  0.37778  0.02838  1.0000
  C   C41       1.0  0.98417  0.10881  0.01409  1.0000
  C   C42       1.0  0.26344  0.04805  0.97881  1.0000
  S   S13       1.0  0.24061  0.38777  0.82704  1.0000
  C   C43       1.0  0.34559  0.43997  0.03389  1.0000
  H   H33       1.0  0.95491  0.25604  0.86002  1.0000
  H   H34       1.0  0.08555  0.11646  0.84732  1.0000
  H   H35       1.0  0.96404  0.05815  0.99021  1.0000
  H   H36       1.0  0.30458  0.19509  0.90602  1.0000
  H   H37       1.0  0.40136  0.11631  0.89016  1.0000
  C   C44       1.0  0.35592  0.32782  0.05285  1.0000
  H   H38       1.0  0.22970  0.06375  0.85072  1.0000
  C   C45       1.0  0.26548  0.98396  0.86450  1.0000
  H   H39       1.0  0.00595  0.31597  0.05155  1.0000
  H   H40       1.0  0.32036  0.44580  0.00698  1.0000
  C   C46       1.0  0.38266  0.40155  0.81499  1.0000
  S   S14       1.0  0.05715  0.11827  0.18448  1.0000
  C   C47       1.0  0.34132  0.27880  0.17807  1.0000
  H   H41       1.0  0.95028  0.08916  0.23057  1.0000
  H   H42       1.0  0.34804  0.39809  0.25960  1.0000
  H   H43       1.0  0.99001  0.36089  0.12472  1.0000
  H   H44       1.0  0.20239  0.33660  0.07234  1.0000
  H   H45       1.0  0.21425  0.38138  0.27973  1.0000
  C   C48       1.0  0.38693  0.32286  0.08781  1.0000
  N   N7        1.0  0.31646  0.22796  0.27022  1.0000
  H   H46       1.0  0.16601  0.44989  0.21070  1.0000
  C   C49       1.0  0.22692  0.06249  0.25826  1.0000
  C   C50       1.0  0.34906  0.09732  0.26137  1.0000
  H   H47       1.0  0.10272  0.42658  0.14120  1.0000
  H   H48       1.0  0.13361  0.23570  0.26839  1.0000
  C   C51       1.0  0.40625  0.43128  0.10371  1.0000
  C   C52       1.0  0.24006  0.27778  0.27278  1.0000
  S   S15       1.0  0.21990  0.21423  0.15424  1.0000
  C   C53       1.0  0.35852  0.04741  0.16449  1.0000
  Fe  Fe4       1.0  0.16852  0.05094  0.15335  1.0000
  H   H49       1.0  0.40965  0.05747  0.25909  1.0000
  H   H50       1.0  0.30614  0.37866  0.17901  1.0000
  Fe  Fe5       1.0  0.01658  0.02480  0.13498  1.0000
  H   H51       1.0  0.39465  0.23616  0.10271  1.0000
  C   C54       1.0  0.31293  0.17638  0.16617  1.0000
  C   C55       1.0  0.19417  0.19596  0.26664  1.0000
  H   H52       1.0  0.19196  0.99772  0.25426  1.0000
  C   C56       1.0  0.36291  0.31584  0.27769  1.0000
  H   H53       1.0  0.35421  0.35613  0.30739  1.0000
  C   C57       1.0  0.98904  0.42161  0.15039  1.0000
  C   C58       1.0  0.30485  0.01279  0.25507  1.0000
  C   C59       1.0  0.05331  0.45617  0.16036  1.0000
  C   C60       1.0  0.41487  0.25262  0.18917  1.0000
  H   H54       1.0  0.42899  0.42756  0.13123  1.0000
  C   C61       1.0  0.97048  0.99126  0.28107  1.0000
  H   H55       1.0  0.42366  0.26456  0.27226  1.0000
  S   S16       1.0  0.12594  0.97321  0.10140  1.0000
  C   C62       1.0  0.43279  0.02139  0.17541  1.0000
  H   H56       1.0  0.43504  0.33192  0.19957  1.0000
  H   H57       1.0  0.27142  0.68449  0.49915  1.0000
  H   H58       1.0  0.35035  0.90603  0.42085  1.0000
  C   C63       1.0  0.31571  0.72037  0.48803  1.0000
  C   C64       1.0  0.40694  0.55098  0.38230  1.0000
  S   S17       1.0  0.21793  0.82847  0.43582  1.0000
  C   C65       1.0  0.36006  0.84600  0.44412  1.0000
  C   C66       1.0  0.95398  0.66645  0.35261  1.0000
  H   H59       1.0  0.99861  0.69535  0.36592  1.0000
  C   C67       1.0  0.16428  0.48296  0.54050  1.0000
  C   C68       1.0  0.97064  0.56257  0.32479  1.0000
  H   H60       1.0  0.10548  0.92862  0.50361  1.0000
  H   H61       1.0  0.37027  0.65190  0.38043  1.0000
  S   S18       1.0  0.08898  0.58988  0.42304  1.0000
  H   H62       1.0  0.14841  0.54875  0.51876  1.0000
  S   S19       1.0  0.23380  0.54163  0.36092  1.0000
  C   C69       1.0  0.38509  0.69210  0.50462  1.0000
  C   C70       1.0  0.30326  0.79718  0.45770  1.0000
  C   C71       1.0  0.34849  0.90031  0.33616  1.0000
  H   H63       1.0  0.40063  0.49208  0.35643  1.0000
  Fe  Fe6       1.0  0.19924  0.63571  0.41926  1.0000
  H   H64       1.0  0.30041  0.86311  0.33868  1.0000
  H   H65       1.0  0.39406  0.63416  0.52841  1.0000
  H   H66       1.0  0.97231  0.91169  0.33455  1.0000
  H   H67       1.0  0.03023  0.85678  0.51078  1.0000
  C   C72       1.0  0.04911  0.92678  0.49454  1.0000
  C   C73       1.0  0.41345  0.82563  0.31555  1.0000
  H   H68       1.0  0.05607  0.88999  0.46440  1.0000
  Fe  Fe7       1.0  0.12880  0.48184  0.36628  1.0000
  C   C74       1.0  0.42965  0.81697  0.46055  1.0000
  H   H69       1.0  0.38745  0.51264  0.40727  1.0000
  C   C75       1.0  0.18853  0.52661  0.57447  1.0000
  Fe  Fe8       1.0  0.21963  0.71196  0.65426  1.0000
  H   H70       1.0  0.32025  0.72900  0.76972  1.0000
  Fe  Fe9       1.0  0.27857  0.94613  0.64945  1.0000
  H   H71       1.0  0.39235  0.50057  0.67279  1.0000
  C   C76       1.0  0.00861  0.82928  0.59233  1.0000
  H   H72       1.0  0.13466  0.47386  0.75451  1.0000
  H   H73       1.0  0.05929  0.79645  0.60717  1.0000
  H   H74       1.0  0.33427  0.93343  0.78907  1.0000
  H   H75       1.0  0.19145  0.62523  0.57845  1.0000
  C   C77       1.0  0.28384  0.58423  0.79710  1.0000
  S   S20       1.0  0.23850  0.49527  0.64586  1.0000
  C   C78       1.0  0.33796  0.63843  0.78269  1.0000
  S   S21       1.0  0.21555  0.85029  0.60976  1.0000
  S   S22       1.0  0.11178  0.82867  0.68450  1.0000
  Fe  Fe10      1.0  0.18384  0.92697  0.71723  1.0000
  C   C79       1.0  0.41443  0.57296  0.78382  1.0000
  H   H76       1.0  0.05051  0.50859  0.78377  1.0000
  S   S23       1.0  0.29257  0.79676  0.69114  1.0000
  H   H77       1.0  0.22488  0.63326  0.79503  1.0000
  H   H78       1.0  0.42761  0.87367  0.68754  1.0000
  H   H79       1.0  0.94856  0.84962  0.73013  1.0000
  C   C80       1.0  0.42569  0.49865  0.64726  1.0000
  H   H80       1.0  0.00784  0.63415  0.57329  1.0000
  C   C81       1.0  0.97943  0.73728  0.57319  1.0000
  C   C82       1.0  0.97245  0.96265  0.59199  1.0000
  S   S24       1.0  0.96547  0.74442  0.91759  1.0000
  H   H81       1.0  0.20002  0.85406  0.84882  1.0000
  H   H82       1.0  0.24825  0.78404  0.02170  1.0000
  Fe  Fe11      1.0  0.07414  0.78727  0.90465  1.0000
  Fe  Fe12      1.0  0.97643  0.66398  0.85721  1.0000
  Fe  Fe13      1.0  0.14209  0.52782  0.85933  1.0000
  H   H83       1.0  0.35840  0.63300  0.03566  1.0000
  C   C83       1.0  0.35251  0.78159  0.90171  1.0000
  C   C84       1.0  0.23709  0.85986  0.00266  1.0000
  C   C85       1.0  0.28141  0.94571  0.00208  1.0000
  C   C86       1.0  0.07437  0.47507  0.01058  1.0000
  S   S25       1.0  0.07875  0.72456  0.84311  1.0000
  H   H84       1.0  0.02683  0.68197  0.00775  1.0000
  C   C87       1.0  0.24823  0.86536  0.86342  1.0000
  S   S26       1.0  0.35859  0.92261  0.03069  1.0000
  H   H85       1.0  0.41550  0.91464  0.91733  1.0000
  C   C88       1.0  0.06540  0.60658  0.02168  1.0000
  H   H86       1.0  0.14502  0.80313  0.97889  1.0000
  S   S27       1.0  0.14764  0.59495  0.91962  1.0000
  C   C89       1.0  0.17827  0.87082  0.97842  1.0000
  Fe  Fe14      1.0  0.03925  0.54621  0.92737  1.0000
  C   C90       1.0  0.10549  0.64082  0.05130  1.0000
  C   C91       1.0  0.36893  0.90093  0.90173  1.0000
  H   H87       1.0  0.27840  0.67189  0.88193  1.0000
  C   C92       1.0  0.29200  0.76367  0.88217  1.0000
  C   C93       1.0  0.36633  0.54610  0.05041  1.0000
  H   H88       1.0  0.38574  0.70446  0.91722  1.0000
  H   H89       1.0  0.09842  0.74242  0.05989  1.0000
  C   C94       1.0  0.12570  0.54455  0.20558  1.0000
  H   H90       1.0  0.43093  0.71276  0.08146  1.0000
  Fe  Fe15      1.0  0.08570  0.92095  0.20569  1.0000
  H   H91       1.0  0.33665  0.96824  0.15478  1.0000
  H   H92       1.0  0.11798  0.61221  0.23146  1.0000
  Fe  Fe16      1.0  0.15047  0.78839  0.13049  1.0000
  S   S28       1.0  0.20278  0.86154  0.17982  1.0000
  N   N8        1.0  0.05488  0.52301  0.19424  1.0000
  H   H93       1.0  0.99357  0.61583  0.24504  1.0000
  C   C95       1.0  0.15528  0.54348  0.06936  1.0000
  S   S29       1.0  0.20547  0.58507  0.10633  1.0000
  H   H94       1.0  0.15084  0.58666  0.18294  1.0000
  H   H95       1.0  0.95573  0.86665  0.08541  1.0000
  C   C96       1.0  0.41254  0.65637  0.10278  1.0000
  S   S30       1.0  0.41482  0.67182  0.29470  1.0000
  N   N9        1.0  0.39613  0.54077  0.08490  1.0000
  S   S31       1.0  0.05690  0.88328  0.26417  1.0000
  C   C97       1.0  0.99222  0.56272  0.21812  1.0000
  H   H96       1.0  0.33109  0.90915  0.24814  1.0000
  S   S32       1.0  0.03587  0.83201  0.15858  1.0000
  H   H97       1.0  0.36116  0.72057  0.11832  1.0000
  H   H98       1.0  0.52155  0.03186  0.32932  1.0000
  S   S33       1.0  0.64095  0.23994  0.49515  1.0000
  C   C98       1.0  0.53796  0.42937  0.38833  1.0000
  H   H99       1.0  0.65543  0.32874  0.39166  1.0000
  C   C99       1.0  0.69723  0.41576  0.53319  1.0000
  H   H100      1.0  0.49927  0.18658  0.44094  1.0000
  H   H101      1.0  0.85395  0.07493  0.35989  1.0000
  C   C100      1.0  0.67996  0.29770  0.53418  1.0000
  C   C101      1.0  0.87572  0.07860  0.33175  1.0000
  C   C102      1.0  0.88983  0.30136  0.51048  1.0000
  H   H102      1.0  0.85015  0.39805  0.51406  1.0000
  C   C103      1.0  0.46393  0.11656  0.51491  1.0000
  H   H103      1.0  0.52126  0.34087  0.38929  1.0000
  H   H104      1.0  0.87401  0.38016  0.41747  1.0000
  H   H105      1.0  0.82102  0.21839  0.47465  1.0000
  Fe  Fe17      1.0  0.67175  0.02317  0.48592  1.0000
  H   H106      1.0  0.46155  0.35316  0.55843  1.0000
  C   C104      1.0  0.87429  0.20124  0.48793  1.0000
  S   S34       1.0  0.75732  0.29600  0.32785  1.0000
  C   C105      1.0  0.61398  0.42180  0.38942  1.0000
  H   H107      1.0  0.87549  0.39691  0.36832  1.0000
  H   H108      1.0  0.52000  0.12312  0.51986  1.0000
  H   H109      1.0  0.68793  0.46766  0.50824  1.0000
  C   C106      1.0  0.47312  0.99535  0.33134  1.0000
  C   C107      1.0  0.45956  0.25220  0.46262  1.0000
  H   H110      1.0  0.91598  0.00114  0.46519  1.0000
  C   C108      1.0  0.72558  0.46783  0.56448  1.0000
  C   C109      1.0  0.91030  0.38926  0.39326  1.0000
  C   C110      1.0  0.92784  0.07867  0.48285  1.0000
  H   H111      1.0  0.48953  0.30986  0.47978  1.0000
  H   H112      1.0  0.46313  0.99496  0.56026  1.0000
  S   S35       1.0  0.64359  0.30536  0.77892  1.0000
  H   H113      1.0  0.92839  0.38737  0.64153  1.0000
  H   H114      1.0  0.47553  0.22289  0.74372  1.0000
  H   H115      1.0  0.86706  0.42540  0.70562  1.0000
  S   S36       1.0  0.60381  0.36734  0.69209  1.0000
  H   H116      1.0  0.60144  0.12493  0.65251  1.0000
  C   C111      1.0  0.92427  0.23565  0.80278  1.0000
  C   C112      1.0  0.92554  0.42209  0.70180  1.0000
  H   H117      1.0  0.53379  0.05859  0.78699  1.0000
  C   C113      1.0  0.79507  0.02484  0.79597  1.0000
  C   C114      1.0  0.47717  0.06805  0.77852  1.0000
  H   H118      1.0  0.48727  0.14040  0.61761  1.0000
  C   C115      1.0  0.73308  0.40509  0.59749  1.0000
  Fe  Fe18      1.0  0.66592  0.19597  0.72207  1.0000
  H   H119      1.0  0.91214  0.19686  0.74386  1.0000
  C   C116      1.0  0.49917  0.07840  0.64040  1.0000
  H   H120      1.0  0.73785  0.01891  0.78998  1.0000
  C   C117      1.0  0.44908  0.01002  0.65073  1.0000
  S   S37       1.0  0.77839  0.22583  0.71172  1.0000
  H   H121      1.0  0.72159  0.23787  0.62424  1.0000
  S   S38       1.0  0.65371  0.99392  0.71776  1.0000
  C   C118      1.0  0.46436  0.41590  0.58311  1.0000
  Fe  Fe19      1.0  0.75210  0.34821  0.76649  1.0000
  Fe  Fe20      1.0  0.71493  0.40856  0.68780  1.0000
  C   C119      1.0  0.56386  0.06948  0.66009  1.0000
  H   H122      1.0  0.80697  0.10225  0.78043  1.0000
  C   C120      1.0  0.71564  0.28675  0.59870  1.0000
  C   C121      1.0  0.90698  0.00393  0.57252  1.0000
  C   C122      1.0  0.57977  0.98886  0.68940  1.0000
  H   H123      1.0  0.87830  0.10702  0.57261  1.0000
  H   H124      1.0  0.49509  0.40665  0.80267  1.0000
  S   S39       1.0  0.83157  0.33311  0.81272  1.0000
  H   H125      1.0  0.67603  0.14122  0.56779  1.0000
  H   H126      1.0  0.83031  0.98442  0.63329  1.0000
  H   H127      1.0  0.92779  0.99398  0.67784  1.0000
  C   C123      1.0  0.69019  0.23177  0.56675  1.0000
  C   C124      1.0  0.44395  0.16050  0.75390  1.0000
  C   C125      1.0  0.43795  0.98468  0.79095  1.0000
  N   N10       1.0  0.80272  0.05206  0.83615  1.0000
  C   C126      1.0  0.88193  0.05575  0.88773  1.0000
  S   S40       1.0  0.45283  0.13705  0.96969  1.0000
  S   S41       1.0  0.54259  0.39998  0.01253  1.0000
  H   H128      1.0  0.83526  0.15181  0.01524  1.0000
  C   C127      1.0  0.57824  0.44691  0.05451  1.0000
  H   H129      1.0  0.66774  0.43232  0.86407  1.0000
  C   C128      1.0  0.85195  0.23333  0.02801  1.0000
  Fe  Fe21      1.0  0.53844  0.19218  0.00525  1.0000
  H   H130      1.0  0.69850  0.19727  0.91503  1.0000
  H   H131      1.0  0.68522  0.13729  0.84809  1.0000
  C   C129      1.0  0.74072  0.11470  0.85902  1.0000
  Fe  Fe22      1.0  0.55146  0.98832  0.94002  1.0000
  C   C130      1.0  0.74788  0.14877  0.89694  1.0000
  H   H132      1.0  0.93779  0.03423  0.89833  1.0000
  C   C131      1.0  0.87263  0.02169  0.85009  1.0000
  S   S42       1.0  0.63679  0.05650  0.97189  1.0000
  C   C132      1.0  0.81908  0.11935  0.91127  1.0000
  H   H133      1.0  0.82567  0.14565  0.94053  1.0000
  C   C133      1.0  0.79660  0.34272  0.04460  1.0000
  S   S43       1.0  0.53417  0.05276  0.04857  1.0000
  H   H134      1.0  0.73787  0.34638  0.04419  1.0000
  Fe  Fe23      1.0  0.45720  0.98491  0.00985  1.0000
  N   N11       1.0  0.92628  0.22622  0.02983  1.0000
  H   H135      1.0  0.92191  0.97313  0.83190  1.0000
  C   C134      1.0  0.81777  0.44529  0.06285  1.0000
  S   S44       1.0  0.69883  0.27699  0.22215  1.0000
  C   C135      1.0  0.85838  0.03441  0.09446  1.0000
  C   C136      1.0  0.59454  0.36441  0.08350  1.0000
  H   H136      1.0  0.63920  0.33801  0.13824  1.0000
  S   S45       1.0  0.90564  0.13689  0.11625  1.0000
  C   C137      1.0  0.78207  0.08448  0.08873  1.0000
  H   H137      1.0  0.75259  0.18358  0.09920  1.0000
  H   H138      1.0  0.83705  0.25657  0.25642  1.0000
  Fe  Fe24      1.0  0.57955  0.27254  0.22735  1.0000
  C   C138      1.0  0.74397  0.00747  0.06915  1.0000
  C   C139      1.0  0.89356  0.43690  0.06460  1.0000
  Fe  Fe25      1.0  0.67920  0.36410  0.28199  1.0000
  C   C140      1.0  0.92487  0.46094  0.17450  1.0000
  S   S46       1.0  0.56386  0.34080  0.28839  1.0000
  H   H139      1.0  0.58352  0.27081  0.08084  1.0000
  C   C141      1.0  0.62578  0.40289  0.11612  1.0000
  C   C142      1.0  0.46053  0.12443  0.18825  1.0000
  S   S47       1.0  0.54991  0.09233  0.20584  1.0000
  C   C143      1.0  0.93110  0.08700  0.25896  1.0000
  C   C144      1.0  0.83774  0.17621  0.30968  1.0000
  H   H140      1.0  0.68522  0.04769  0.06454  1.0000
  C   C145      1.0  0.86536  0.18001  0.27330  1.0000
  H   H141      1.0  0.92562  0.44778  0.28498  1.0000
  H   H142      1.0  0.87476  0.43355  0.16714  1.0000
  H   H143      1.0  0.67684  0.98266  0.14364  1.0000
  H   H144      1.0  0.86650  0.81383  0.38478  1.0000
  H   H145      1.0  0.82740  0.94452  0.53827  1.0000
  H   H146      1.0  0.59797  0.74104  0.38009  1.0000
  C   C146      1.0  0.91443  0.77849  0.55343  1.0000
  S   S48       1.0  0.78245  0.91311  0.45733  1.0000
  C   C147      1.0  0.82149  0.69943  0.34501  1.0000
  S   S49       1.0  0.67517  0.88480  0.52990  1.0000
  S   S50       1.0  0.60358  0.93494  0.44753  1.0000
  N   N12       1.0  0.48576  0.54617  0.38490  1.0000
  S   S51       1.0  0.87973  0.66308  0.52864  1.0000
  C   C148      1.0  0.50709  0.65703  0.38280  1.0000
  S   S52       1.0  0.72852  0.77783  0.35947  1.0000
  C   C149      1.0  0.63641  0.53397  0.38578  1.0000
  C   C150      1.0  0.87796  0.91191  0.55325  1.0000
  H   H147      1.0  0.54137  0.50006  0.55628  1.0000
  S   S53       1.0  0.52740  0.70740  0.51301  1.0000
  C   C151      1.0  0.44225  0.74009  0.49082  1.0000
  Fe  Fe26      1.0  0.71478  0.81255  0.42217  1.0000
  Fe  Fe27      1.0  0.61713  0.78445  0.48875  1.0000
  H   H148      1.0  0.47296  0.85553  0.45001  1.0000
  H   H149      1.0  0.46591  0.74982  0.38074  1.0000
  C   C152      1.0  0.87930  0.73398  0.36309  1.0000
  S   S54       1.0  0.72308  0.65208  0.46003  1.0000
  Fe  Fe28      1.0  0.78021  0.76481  0.49786  1.0000
  C   C153      1.0  0.58240  0.65261  0.38288  1.0000
  H   H150      1.0  0.73882  0.55949  0.56346  1.0000
  H   H151      1.0  0.69553  0.52852  0.38450  1.0000
  H   H152      1.0  0.92676  0.48041  0.39829  1.0000
  C   C154      1.0  0.83810  0.59951  0.31587  1.0000
  C   C155      1.0  0.55513  0.67633  0.61064  1.0000
  H   H153      1.0  0.77840  0.74576  0.60609  1.0000
  N   N13       1.0  0.80019  0.83145  0.65816  1.0000
  C   C156      1.0  0.46614  0.92612  0.67928  1.0000
  C   C157      1.0  0.74799  0.81826  0.62930  1.0000
  H   H154      1.0  0.51643  0.77390  0.60695  1.0000
  C   C158      1.0  0.53283  0.91240  0.69787  1.0000
  H   H155      1.0  0.72220  0.91307  0.61779  1.0000
  H   H156      1.0  0.83523  0.93071  0.78516  1.0000
  S   S55       1.0  0.69776  0.53498  0.74167  1.0000
  C   C159      1.0  0.84058  0.91884  0.65526  1.0000
  S   S56       1.0  0.48186  0.63565  0.76323  1.0000
  H   H157      1.0  0.47348  0.64617  0.66972  1.0000
  H   H158      1.0  0.59628  0.65037  0.58622  1.0000
  H   H159      1.0  0.54542  0.84891  0.72040  1.0000
  H   H160      1.0  0.46404  0.90943  0.80900  1.0000
  C   C160      1.0  0.50934  0.50001  0.58205  1.0000
  C   C161      1.0  0.47113  0.58188  0.64520  1.0000
  H   H161      1.0  0.58674  0.68061  0.63631  1.0000
  N   N14       1.0  0.51212  0.58191  0.61283  1.0000
  H   H162      1.0  0.70150  0.78467  0.64105  1.0000
  C   C162      1.0  0.81117  0.75176  0.68678  1.0000
  H   H163      1.0  0.77802  0.68444  0.68954  1.0000
  C   C163      1.0  0.89516  0.92565  0.68074  1.0000
  C   C164      1.0  0.90683  0.84463  0.70996  1.0000
  H   H164      1.0  0.74958  0.74638  0.77837  1.0000
  H   H165      1.0  0.87082  0.69743  0.73645  1.0000
  Fe  Fe29      1.0  0.59092  0.48055  0.74830  1.0000
  C   C165      1.0  0.86383  0.75839  0.71334  1.0000
  H   H166      1.0  0.61866  0.84738  0.80285  1.0000
  C   C166      1.0  0.73771  0.77106  0.80818  1.0000
  S   S57       1.0  0.75854  0.48080  0.63779  1.0000
  S   S58       1.0  0.88929  0.68770  0.81428  1.0000
  N   N15       1.0  0.72230  0.52426  0.90398  1.0000
  H   H167      1.0  0.88742  0.72823  0.05188  1.0000
  C   C167      1.0  0.79771  0.50912  0.89963  1.0000
  C   C168      1.0  0.66356  0.82959  0.82203  1.0000
  C   C169      1.0  0.79644  0.74973  0.83259  1.0000
  S   S59       1.0  0.73323  0.78246  0.03209  1.0000
  C   C170      1.0  0.73082  0.53186  0.97085  1.0000
  Fe  Fe30      1.0  0.62667  0.91201  0.01212  1.0000
  S   S60       1.0  0.55599  0.94600  0.87747  1.0000
  H   H168      1.0  0.62205  0.60495  0.87625  1.0000
  S   S61       1.0  0.54978  0.83121  0.97718  1.0000
  H   H169      1.0  0.82520  0.76751  0.89006  1.0000
  H   H170      1.0  0.84004  0.52593  0.99089  1.0000
  C   C171      1.0  0.59215  0.56849  0.05852  1.0000
  C   C172      1.0  0.67696  0.52877  0.87106  1.0000
  C   C173      1.0  0.70635  0.83956  0.88496  1.0000
  C   C174      1.0  0.78057  0.78407  0.87098  1.0000
  H   H171      1.0  0.82455  0.50419  0.87211  1.0000
  H   H172      1.0  0.90046  0.49830  0.92710  1.0000
  H   H173      1.0  0.57846  0.63385  0.03656  1.0000
  H   H174      1.0  0.69474  0.86248  0.91473  1.0000
  C   C175      1.0  0.64794  0.86551  0.86043  1.0000
  C   C176      1.0  0.78157  0.87860  0.05620  1.0000
  C   C177      1.0  0.80723  0.52087  0.96659  1.0000
  H   H175      1.0  0.62939  0.54294  0.94274  1.0000
  C   C178      1.0  0.68900  0.53248  0.93905  1.0000
  C   C179      1.0  0.84115  0.50721  0.93076  1.0000
  H   H176      1.0  0.70518  0.55434  0.84615  1.0000
  H   H177      1.0  0.70353  0.54452  0.99865  1.0000
  C   C180      1.0  0.85778  0.82716  0.06251  1.0000
  H   H178      1.0  0.46806  0.92170  0.17465  1.0000
  C   C181      1.0  0.69034  0.88061  0.15138  1.0000
  Fe  Fe31      1.0  0.52503  0.54187  0.26928  1.0000
  H   H179      1.0  0.52677  0.81533  0.29769  1.0000
  H   H180      1.0  0.72459  0.81295  0.12826  1.0000
  H   H181      1.0  0.70872  0.82134  0.27774  1.0000
  H   H182      1.0  0.79319  0.57175  0.30220  1.0000
  H   H183      1.0  0.89538  0.89234  0.21838  1.0000
  C   C182      1.0  0.64241  0.52249  0.11940  1.0000
  H   H184      1.0  0.45855  0.62891  0.12234  1.0000
  H   H185      1.0  0.63641  0.85623  0.15463  1.0000
  C   C183      1.0  0.62464  0.60579  0.09070  1.0000
  C   C184      1.0  0.92600  0.53360  0.20839  1.0000
  C   C185      1.0  0.89640  0.90541  0.08150  1.0000
  C   C186      1.0  0.83987  0.87910  0.21877  1.0000
  C   C187      1.0  0.80653  0.85679  0.25210  1.0000
  C   C188      1.0  0.73541  0.83809  0.25194  1.0000
  H   H186      1.0  0.64289  0.82898  0.21852  1.0000
  H   H187      1.0  0.77585  0.53090  0.07588  1.0000
  S   S62       1.0  0.68733  0.56672  0.15863  1.0000
  H   H188      1.0  0.63624  0.69917  0.09317  1.0000
  H   H189      1.0  0.87638  0.56426  0.22734  1.0000
  C   C189      1.0  0.69836  0.84308  0.21839  1.0000
  C   C190      1.0  0.80053  0.88650  0.18595  1.0000
  N   N16       1.0  0.73070  0.86856  0.18607  1.0000
  S   S63       1.0  0.63937  0.57251  0.26798  1.0000
  S   S64       1.0  0.53146  0.47214  0.20849  1.0000
  H   H190      1.0  0.82575  0.90806  0.16041  1.0000
  C   C191      1.0  0.91288  0.53000  0.30600  1.0000
  C   C192      1.0  0.47613  0.87275  0.31331  1.0000
  H   H191      1.0  0.91070  0.51585  0.07872  1.0000
  H   H192      1.0  0.83540  0.85480  0.27808  1.0000
  Fe  Fe32      1.0  0.64929  0.48310  0.20843  1.0000
