data_image0
_chemical_formula_structural       CFeSCHSHC7H4N2FeCHCHSCH3C2H4C2H2CSCHC3SFeH4CHCSHC2SHCH2SH6FeC2H2CFeHSH2C4H2FeC2HCSCHCHSHSHSFeC2NC3H2NC2H2C4HCFeCSFeHCH4FeS2CSHSCH2C3HC4HSCSNHFeHFeH2SCHC2NCH3C2HSHSNFeHFeCHCH2C2FeSC3SH3SC2H2C2HCH2S2HSCFeSFeSH2FeHC3H2CHC6H3CHNC2HCHC2SCHFeSHCS2CFeS2HSCH4C7H6NCFe2SCSCH3CHC2S2C3HFe2HCH4C2HCHCNCH2SCFeHCNHSC2SHC2HC4HS3C2HC2SH2FeH3C2HCFeC2HCNHCSCH2C3HSFeSCS2FeC6H4NC3H5CH4CHC4NH2SC3FeCHCH3C2S2H2C2H4CH2S2H5NH3CSFeSFeCHC4H4SC3HC2HCSCH2SCH2C2HNH2CHCH2
_chemical_formula_sum              "C192 Fe32 S64 H192 N16"
_cell_length_a       28.6136
_cell_length_b       28.2031
_cell_length_c       34.714
_cell_angle_alpha    90.9274
_cell_angle_beta     91.7941
_cell_angle_gamma    80.8853

_space_group_name_H-M_alt    "P 1"
_space_group_IT_number       1

loop_
  _space_group_symop_operation_xyz
  'x, y, z'

loop_
  _atom_site_type_symbol
  _atom_site_label
  _atom_site_symmetry_multiplicity
  _atom_site_fract_x
  _atom_site_fract_y
  _atom_site_fract_z
  _atom_site_occupancy
  C   C1        1.0  0.09299  0.12641  0.27452  1.0000
  Fe  Fe1       1.0  0.05009  0.29289  0.31939  1.0000
  S   S1        1.0  0.12758  0.26311  0.31747  1.0000
  C   C2        1.0  0.13119  0.09114  0.28518  1.0000
  H   H1        1.0  0.34478  0.14460  0.25024  1.0000
  S   S2        1.0  0.17866  0.14852  0.16268  1.0000
  H   H2        1.0  0.20072  0.27708  0.16972  1.0000
  C   C3        1.0  0.23843  0.26997  0.22460  1.0000
  C   C4        1.0  0.14211  0.23207  0.27433  1.0000
  C   C5        1.0  0.18088  0.19506  0.27385  1.0000
  C   C6        1.0  0.19206  0.16890  0.23980  1.0000
  C   C7        1.0  0.16513  0.18016  0.20593  1.0000
  C   C8        1.0  0.12682  0.21776  0.20631  1.0000
  C   C9        1.0  0.11512  0.24345  0.24051  1.0000
  H   H3        1.0  0.20178  0.18609  0.30000  1.0000
  H   H4        1.0  0.22140  0.14013  0.24003  1.0000
  H   H5        1.0  0.10603  0.22698  0.18014  1.0000
  H   H6        1.0  0.08550  0.27237  0.24053  1.0000
  N   N1        1.0  0.07440  0.12784  0.23766  1.0000
  N   N2        1.0  0.30819  0.20992  0.22738  1.0000
  Fe  Fe2       1.0  0.24140  0.08921  0.16393  1.0000
  C   C10       1.0  0.46665  0.06581  0.18725  1.0000
  H   H7        1.0  0.28134  0.25259  0.27568  1.0000
  C   C11       1.0  0.23154  0.25913  0.18568  1.0000
  H   H8        1.0  0.25709  0.21339  0.13799  1.0000
  S   S3        1.0  0.41026  0.10077  0.18226  1.0000
  C   C12       1.0  0.50690  0.08752  0.18274  1.0000
  H   H9        1.0  0.14654  0.09082  0.31416  1.0000
  H   H10       1.0  0.38209  0.18573  0.23448  1.0000
  H   H11       1.0  0.08292  0.50726  0.26727  1.0000
  C   C13       1.0  0.13045  0.05839  0.22064  1.0000
  C   C14       1.0  0.27707  0.24471  0.24521  1.0000
  H   H12       1.0  0.35152  0.19688  0.27903  1.0000
  H   H13       1.0  0.32584  0.17100  0.17528  1.0000
  H   H14       1.0  0.21299  0.29649  0.23909  1.0000
  H   H15       1.0  0.07827  0.09571  0.18152  1.0000
  C   C15       1.0  0.30161  0.19906  0.18925  1.0000
  C   C16       1.0  0.15001  0.05694  0.25799  1.0000
  H   H16       1.0  0.03287  0.44748  0.28602  1.0000
  H   H17       1.0  0.07909  0.15334  0.29567  1.0000
  C   C17       1.0  0.26320  0.22337  0.16786  1.0000
  S   S4        1.0  0.28881  0.07019  0.21568  1.0000
  C   C18       1.0  0.05266  0.51832  0.28508  1.0000
  H   H18       1.0  0.48030  0.09846  0.07351  1.0000
  C   C19       1.0  0.09248  0.09428  0.21089  1.0000
  C   C20       1.0  0.50814  0.06880  0.08051  1.0000
  C   C21       1.0  0.34849  0.18318  0.24902  1.0000
  S   S5        1.0  0.30087  0.08656  0.12315  1.0000
  Fe  Fe3       1.0  0.34792  0.06151  0.17411  1.0000
  H   H19       1.0  0.50298  0.12551  0.17684  1.0000
  H   H20       1.0  0.34329  0.05159  0.05325  1.0000
  H   H21       1.0  0.42480  0.05385  0.10366  1.0000
  H   H22       1.0  0.03313  0.19752  0.24466  1.0000
  C   C22       1.0  0.03349  0.16408  0.22721  1.0000
  H   H23       1.0  0.03442  0.17478  0.19659  1.0000
  C   C23       1.0  0.02437  0.48444  0.29564  1.0000
  S   S6        1.0  0.06588  0.33166  0.66411  1.0000
  H   H24       1.0  0.05382  0.42979  0.56561  1.0000
  C   C24       1.0  0.03817  0.39661  0.56928  1.0000
  C   C25       1.0  0.05589  0.46795  0.65610  1.0000
  S   S7        1.0  0.02811  0.22764  0.66929  1.0000
  H   H25       1.0  0.08924  0.25808  0.48580  1.0000
  C   C26       1.0  0.08853  0.50011  0.65455  1.0000
  H   H26       1.0  0.12608  0.48646  0.65428  1.0000
  H   H27       1.0  0.21207  0.18151  0.67903  1.0000
  S   S8        1.0  0.07211  0.25838  0.56683  1.0000
  H   H28       1.0  0.03522  0.26137  0.42819  1.0000
  H   H29       1.0  0.06857  0.42995  0.65713  1.0000
  H   H30       1.0  0.06612  0.36461  0.56620  1.0000
  H   H31       1.0  0.04572  0.15240  0.60064  1.0000
  H   H32       1.0  0.04671  0.37260  0.49515  1.0000
  H   H33       1.0  0.05121  0.14388  0.53003  1.0000
  Fe  Fe4       1.0  0.03770  0.27978  0.62323  1.0000
  C   C27       1.0  0.05145  0.26066  0.48934  1.0000
  C   C28       1.0  0.03327  0.26184  0.52640  1.0000
  H   H34       1.0  0.13939  0.23898  0.69277  1.0000
  H   H35       1.0  0.02540  0.39650  0.59913  1.0000
  C   C29       1.0  0.12976  0.10571  0.73534  1.0000
  Fe  Fe5       1.0  0.04758  0.28388  0.71039  1.0000
  H   H36       1.0  0.23322  0.15178  0.79984  1.0000
  S   S9        1.0  0.27590  0.11902  0.72734  1.0000
  H   H37       1.0  0.16097  0.20997  0.81376  1.0000
  H   H38       1.0  0.07625  0.37436  0.75234  1.0000
  C   C30       1.0  0.14523  0.22805  0.75414  1.0000
  C   C31       1.0  0.17201  0.20372  0.78433  1.0000
  C   C32       1.0  0.21278  0.17066  0.77650  1.0000
  C   C33       1.0  0.22713  0.16245  0.73850  1.0000
  H   H39       1.0  0.14491  0.41814  0.74955  1.0000
  H   H40       1.0  0.36475  0.09490  0.99650  1.0000
  Fe  Fe6       1.0  0.30592  0.06867  0.77463  1.0000
  C   C34       1.0  0.07068  0.41340  0.75202  1.0000
  C   C35       1.0  0.11580  0.07380  0.79604  1.0000
  H   H41       1.0  0.13148  0.50722  0.74843  1.0000
  C   C36       1.0  0.16781  0.06875  0.72966  1.0000
  S   S10       1.0  0.09223  0.26611  0.76390  1.0000
  C   C37       1.0  0.15978  0.22016  0.71620  1.0000
  H   H42       1.0  0.46292  0.05445  0.77396  1.0000
  C   C38       1.0  0.34836  0.06308  0.99249  1.0000
  H   H43       1.0  0.07576  0.17146  0.79825  1.0000
  S   S11       1.0  0.35481  0.07801  0.91535  1.0000
  H   H44       1.0  0.09630  0.07601  0.82247  1.0000
  S   S12       1.0  0.26693  0.05264  0.82673  1.0000
  H   H45       1.0  0.03282  0.13376  0.78244  1.0000
  S   S13       1.0  0.37468  0.07049  0.80700  1.0000
  Fe  Fe7       1.0  0.33777  0.04668  0.85759  1.0000
  C   C39       1.0  0.06550  0.14760  0.77469  1.0000
  C   C40       1.0  0.33915  0.04668  0.95512  1.0000
  N   N3        1.0  0.10432  0.10788  0.76824  1.0000
  C   C41       1.0  0.20090  0.18768  0.70845  1.0000
  C   C42       1.0  0.15321  0.03595  0.79104  1.0000
  C   C43       1.0  0.10923  0.43800  0.75053  1.0000
  H   H46       1.0  0.50886  0.14190  0.86904  1.0000
  H   H47       1.0  0.12162  0.13330  0.71370  1.0000
  N   N4        1.0  0.05633  0.51336  0.75064  1.0000
  C   C44       1.0  0.10138  0.48831  0.75000  1.0000
  C   C45       1.0  0.33596  0.03875  0.02465  1.0000
  H   H48       1.0  0.43816  0.10141  0.87466  1.0000
  H   H49       1.0  0.05694  0.17021  0.74869  1.0000
  C   C46       1.0  0.51309  0.10316  0.87133  1.0000
  C   C47       1.0  0.47344  0.08044  0.87415  1.0000
  C   C48       1.0  0.02492  0.43926  0.75281  1.0000
  C   C49       1.0  0.49895  0.03627  0.77564  1.0000
  H   H50       1.0  0.18922  0.06823  0.70431  1.0000
  C   C50       1.0  0.17938  0.03363  0.75765  1.0000
  Fe  Fe8       1.0  0.07442  0.78656  0.27451  1.0000
  C   C51       1.0  0.23082  0.77350  0.21727  1.0000
  S   S14       1.0  0.09696  0.82812  0.22530  1.0000
  Fe  Fe9       1.0  0.05950  0.68629  0.29988  1.0000
  H   H51       1.0  0.17992  0.02954  0.26567  1.0000
  C   C52       1.0  0.21609  0.81524  0.15550  1.0000
  H   H52       1.0  0.15850  0.84027  0.29214  1.0000
  H   H53       1.0  0.32099  0.88348  0.17596  1.0000
  H   H54       1.0  0.22558  0.88631  0.29995  1.0000
  H   H55       1.0  0.30005  0.82673  0.22338  1.0000
  Fe  Fe10      1.0  0.28151  0.99419  0.20016  1.0000
  S   S15       1.0  0.23058  0.01383  0.15068  1.0000
  S   S16       1.0  0.26626  0.94561  0.24778  1.0000
  C   C53       1.0  0.26532  0.87184  0.13528  1.0000
  S   S17       1.0  0.29830  0.96694  0.05958  1.0000
  H   H56       1.0  0.19494  0.94350  0.18656  1.0000
  S   S18       1.0  0.34633  0.98298  0.16381  1.0000
  C   C54       1.0  0.27988  0.83161  0.19635  1.0000
  H   H57       1.0  0.52142  0.95157  0.20437  1.0000
  H   H58       1.0  0.20597  0.85374  0.10167  1.0000
  C   C55       1.0  0.14892  0.89632  0.20562  1.0000
  C   C56       1.0  0.18664  0.92230  0.21003  1.0000
  C   C57       1.0  0.29191  0.86391  0.16959  1.0000
  H   H59       1.0  0.12829  0.89831  0.17885  1.0000
  C   C58       1.0  0.13913  0.86606  0.23485  1.0000
  C   C59       1.0  0.16593  0.86354  0.26937  1.0000
  C   C60       1.0  0.20395  0.88951  0.27369  1.0000
  C   C61       1.0  0.21493  0.91832  0.24372  1.0000
  H   H60       1.0  0.23852  0.78517  0.24724  1.0000
  S   S19       1.0  0.11824  0.72968  0.31033  1.0000
  C   C62       1.0  0.47193  0.01674  0.19496  1.0000
  S   S20       1.0  0.03493  0.82343  0.32412  1.0000
  N   N5        1.0  0.24212  0.80810  0.18926  1.0000
  H   H61       1.0  0.25175  0.73758  0.21171  1.0000
  Fe  Fe11      1.0  0.07393  0.76269  0.35919  1.0000
  H   H62       1.0  0.19246  0.77053  0.21574  1.0000
  Fe  Fe12      1.0  0.29535  0.00868  0.11533  1.0000
  H   H63       1.0  0.27396  0.89728  0.11447  1.0000
  H   H64       1.0  0.18581  0.79700  0.15008  1.0000
  S   S21       1.0  0.07574  0.60865  0.28075  1.0000
  C   C63       1.0  0.22715  0.84737  0.12810  1.0000
  H   H65       1.0  0.44109  0.99983  0.19895  1.0000
  C   C64       1.0  0.51741  0.98951  0.19818  1.0000
  C   C65       1.0  0.04169  0.56645  0.29706  1.0000
  N   N6        1.0  0.49702  0.02609  0.09256  1.0000
  C   C66       1.0  0.44718  0.01991  0.09442  1.0000
  H   H66       1.0  0.44241  0.99241  0.11592  1.0000
  H   H67       1.0  0.14498  0.03223  0.19922  1.0000
  H   H68       1.0  0.43402  0.00880  0.06573  1.0000
  C   C67       1.0  0.06057  0.63699  0.56140  1.0000
  C   C68       1.0  0.02619  0.78176  0.52518  1.0000
  H   H69       1.0  0.24370  0.88266  0.67500  1.0000
  S   S22       1.0  0.11442  0.71678  0.61694  1.0000
  H   H70       1.0  0.12251  0.62132  0.43577  1.0000
  S   S23       1.0  0.19424  0.80254  0.66540  1.0000
  N   N7        1.0  0.09267  0.65011  0.48813  1.0000
  Fe  Fe13      1.0  0.04032  0.75651  0.61993  1.0000
  H   H71       1.0  0.13885  0.77786  0.49514  1.0000
  Fe  Fe14      1.0  0.13055  0.76463  0.66630  1.0000
  C   C69       1.0  0.02838  0.78149  0.45503  1.0000
  H   H72       1.0  0.13976  0.67787  0.45161  1.0000
  C   C70       1.0  0.10084  0.77916  0.49332  1.0000
  H   H73       1.0  0.09348  0.78098  0.55481  1.0000
  H   H74       1.0  0.04833  0.63271  0.59023  1.0000
  C   C71       1.0  0.12356  0.62890  0.51599  1.0000
  C   C72       1.0  0.07762  0.77913  0.45722  1.0000
  Fe  Fe15      1.0  0.09213  0.66917  0.66176  1.0000
  S   S24       1.0  0.11155  0.77355  0.41562  1.0000
  C   C73       1.0  0.07522  0.78047  0.52718  1.0000
  C   C74       1.0  0.07297  0.54979  0.65465  1.0000
  C   C75       1.0  0.11012  0.65665  0.44961  1.0000
  S   S25       1.0  0.11535  0.58881  0.65666  1.0000
  H   H75       1.0  0.13255  0.60539  0.57521  1.0000
  H   H76       1.0  0.16063  0.61780  0.50980  1.0000
  H   H77       1.0  0.08235  0.67687  0.43038  1.0000
  S   S26       1.0  0.05792  0.80828  0.66576  1.0000
  C   C76       1.0  0.10794  0.62171  0.55293  1.0000
  C   C77       1.0  0.04603  0.66479  0.49611  1.0000
  H   H78       1.0  0.31807  0.79903  0.68252  1.0000
  H   H79       1.0  0.37623  0.85245  0.66671  1.0000
  C   C78       1.0  0.02941  0.65894  0.53295  1.0000
  C   C79       1.0  0.02441  0.56711  0.65500  1.0000
  H   H80       1.0  0.17969  0.85102  0.80142  1.0000
  C   C80       1.0  0.50851  0.98610  0.77603  1.0000
  H   H81       1.0  0.29580  0.82221  0.81483  1.0000
  H   H82       1.0  0.04899  0.57937  0.78183  1.0000
  S   S27       1.0  0.11578  0.71308  0.71117  1.0000
  S   S28       1.0  0.32528  0.99183  0.75567  1.0000
  H   H83       1.0  0.26214  0.92997  0.73246  1.0000
  S   S29       1.0  0.35794  0.96810  0.84538  1.0000
  C   C81       1.0  0.04887  0.56605  0.75157  1.0000
  Fe  Fe16      1.0  0.39078  0.99205  0.79275  1.0000
  S   S30       1.0  0.46237  0.95151  0.77772  1.0000
  Fe  Fe17      1.0  0.29044  0.97568  0.80962  1.0000
  S   S31       1.0  0.23840  0.92367  0.81314  1.0000
  H   H84       1.0  0.16132  0.80340  0.74370  1.0000
  H   H85       1.0  0.29814  0.78945  0.75029  1.0000
  Fe  Fe18      1.0  0.04158  0.75336  0.70713  1.0000
  H   H86       1.0  0.28927  0.94927  0.97817  1.0000
  C   C82       1.0  0.30588  0.98095  0.98225  1.0000
  C   C83       1.0  0.31793  0.00552  0.95003  1.0000
  C   C84       1.0  0.33553  0.81719  0.70533  1.0000
  H   H87       1.0  0.31042  0.99280  0.92132  1.0000
  H   H88       1.0  0.33330  0.86400  0.82975  1.0000
  C   C85       1.0  0.33247  0.83031  0.81280  1.0000
  H   H89       1.0  0.35784  0.80084  0.82607  1.0000
  C   C86       1.0  0.31443  0.99778  0.01961  1.0000
  C   C87       1.0  0.23984  0.90292  0.73515  1.0000
  C   C88       1.0  0.22253  0.89361  0.77101  1.0000
  C   C89       1.0  0.19344  0.85828  0.77380  1.0000
  C   C90       1.0  0.18289  0.83137  0.74114  1.0000
  C   C91       1.0  0.37693  0.86520  0.76426  1.0000
  H   H90       1.0  0.20922  0.00519  0.75389  1.0000
  H   H91       1.0  0.44841  0.01263  0.87748  1.0000
  H   H92       1.0  0.07698  0.58030  0.73592  1.0000
  C   C92       1.0  0.20167  0.83957  0.70559  1.0000
  H   H93       1.0  0.16264  0.00903  0.81317  1.0000
  N   N8        1.0  0.34434  0.83649  0.77261  1.0000
  C   C93       1.0  0.38890  0.87137  0.72611  1.0000
  C   C94       1.0  0.32429  0.81195  0.74382  1.0000
  H   H94       1.0  0.39359  0.88399  0.78707  1.0000
  C   C95       1.0  0.47923  0.03048  0.87583  1.0000
  H   H95       1.0  0.41417  0.89496  0.71970  1.0000
  C   C96       1.0  0.22941  0.87598  0.70254  1.0000
  C   C97       1.0  0.36780  0.84739  0.69648  1.0000
  S   S32       1.0  0.91492  0.33116  0.32382  1.0000
  C   C98       1.0  0.98449  0.49876  0.31777  1.0000
  H   H96       1.0  0.73157  0.19704  0.19975  1.0000
  Fe  Fe19      1.0  0.95678  0.28539  0.27957  1.0000
  S   S33       1.0  0.92801  0.25089  0.22676  1.0000
  H   H97       1.0  0.58310  0.07716  0.18189  1.0000
  C   C99       1.0  0.76142  0.26795  0.29585  1.0000
  S   S34       1.0  0.77568  0.11658  0.25192  1.0000
  S   S35       1.0  0.00081  0.23888  0.32300  1.0000
  C   C100      1.0  0.74386  0.24667  0.26288  1.0000
  Fe  Fe20      1.0  0.72186  0.05852  0.11837  1.0000
  S   S36       1.0  0.79241  0.05311  0.14932  1.0000
  S   S37       1.0  0.70453  0.09363  0.06070  1.0000
  H   H98       1.0  0.80532  0.29166  0.19509  1.0000
  S   S38       1.0  0.68041  0.08623  0.17031  1.0000
  C   C101      1.0  0.74028  0.23305  0.19298  1.0000
  H   H99       1.0  0.71869  0.22205  0.26610  1.0000
  H   H100      1.0  0.76651  0.22725  0.16972  1.0000
  H   H101      1.0  0.83767  0.32964  0.25238  1.0000
  H   H102      1.0  0.56444  0.10898  0.06832  1.0000
  C   C102      1.0  0.79212  0.28543  0.22322  1.0000
  C   C103      1.0  0.82362  0.14734  0.24510  1.0000
  C   C104      1.0  0.84376  0.16866  0.27699  1.0000
  C   C105      1.0  0.87777  0.19870  0.27185  1.0000
  C   C106      1.0  0.89144  0.20773  0.23471  1.0000
  C   C107      1.0  0.87295  0.18466  0.20299  1.0000
  C   C108      1.0  0.83926  0.15432  0.20818  1.0000
  H   H103      1.0  0.83185  0.16330  0.30565  1.0000
  H   H104      1.0  0.89194  0.21637  0.29646  1.0000
  H   H105      1.0  0.88358  0.19150  0.17421  1.0000
  H   H106      1.0  0.82386  0.13826  0.18340  1.0000
  H   H107      1.0  0.74980  0.26008  0.32416  1.0000
  H   H108      1.0  0.70773  0.25628  0.18212  1.0000
  N   N9        1.0  0.75965  0.25516  0.22721  1.0000
  C   C109      1.0  0.55234  0.06020  0.18558  1.0000
  Fe  Fe21      1.0  0.75084  0.07305  0.20233  1.0000
  Fe  Fe22      1.0  0.97108  0.37850  0.32167  1.0000
  S   S39       1.0  0.94627  0.45816  0.32927  1.0000
  C   C110      1.0  0.79503  0.29832  0.29209  1.0000
  S   S40       1.0  0.00852  0.33678  0.27282  1.0000
  C   C111      1.0  0.81047  0.30723  0.25557  1.0000
  H   H109      1.0  0.88404  0.04684  0.24031  1.0000
  H   H110      1.0  0.62832  0.04153  0.08459  1.0000
  H   H111      1.0  0.99997  0.15009  0.23184  1.0000
  C   C112      1.0  0.55550  0.07499  0.07746  1.0000
  H   H112      1.0  0.80974  0.31425  0.31746  1.0000
  C   C113      1.0  0.59147  0.03707  0.08654  1.0000
  C   C114      1.0  0.95347  0.40716  0.55122  1.0000
  S   S41       1.0  0.93331  0.26627  0.42114  1.0000
  S   S42       1.0  0.96320  0.31803  0.62367  1.0000
  C   C115      1.0  0.92855  0.16433  0.57611  1.0000
  C   C116      1.0  0.98450  0.26449  0.53068  1.0000
  C   C117      1.0  0.95400  0.26641  0.49820  1.0000
  H   H113      1.0  0.89400  0.17131  0.58908  1.0000
  Fe  Fe23      1.0  0.95481  0.26925  0.67242  1.0000
  Fe  Fe24      1.0  0.99013  0.36643  0.66777  1.0000
  H   H114      1.0  0.96644  0.16494  0.63053  1.0000
  C   C118      1.0  0.91644  0.40562  0.52414  1.0000
  H   H115      1.0  0.97027  0.26302  0.55886  1.0000
  H   H116      1.0  0.94896  0.16692  0.46263  1.0000
  H   H117      1.0  0.89870  0.39046  0.46471  1.0000
  H   H118      1.0  0.91632  0.26812  0.50176  1.0000
  C   C119      1.0  0.97211  0.26560  0.46121  1.0000
  C   C120      1.0  0.97402  0.38134  0.47550  1.0000
  H   H119      1.0  0.94503  0.41787  0.58073  1.0000
  C   C121      1.0  0.93268  0.15938  0.53611  1.0000
  H   H120      1.0  0.98267  0.10754  0.46995  1.0000
  C   C122      1.0  0.01372  0.15348  0.58282  1.0000
  N   N10       1.0  0.97633  0.15204  0.51995  1.0000
  C   C123      1.0  0.92691  0.39244  0.48606  1.0000
  H   H121      1.0  0.90075  0.16227  0.51806  1.0000
  H   H122      1.0  0.82443  0.16752  0.68228  1.0000
  S   S43       1.0  0.89302  0.22872  0.66857  1.0000
  C   C124      1.0  0.96938  0.16105  0.59951  1.0000
  Fe  Fe25      1.0  0.96400  0.28918  0.36698  1.0000
  H   H123      1.0  0.87992  0.41448  0.53271  1.0000
  C   C125      1.0  0.00738  0.48524  0.65736  1.0000
  N   N11       1.0  0.99959  0.39481  0.54079  1.0000
  H   H124      1.0  0.01173  0.15997  0.46777  1.0000
  S   S44       1.0  0.96555  0.44620  0.66212  1.0000
  C   C126      1.0  0.98009  0.14607  0.47805  1.0000
  C   C127      1.0  0.01658  0.14872  0.54277  1.0000
  S   S45       1.0  0.01752  0.33908  0.36789  1.0000
  H   H125      1.0  0.98241  0.37080  0.44601  1.0000
  C   C128      1.0  0.01016  0.38246  0.50343  1.0000
  C   C129      1.0  0.02090  0.26278  0.45674  1.0000
  H   H126      1.0  0.94697  0.20847  0.74034  1.0000
  C   C130      1.0  0.84278  0.13509  0.73769  1.0000
  C   C131      1.0  0.84909  0.16472  0.70673  1.0000
  C   C132      1.0  0.80884  0.12895  0.94470  1.0000
  C   C133      1.0  0.85143  0.06166  0.91003  1.0000
  H   H127      1.0  0.78966  0.16535  0.94523  1.0000
  S   S46       1.0  0.86663  0.09578  0.80930  1.0000
  S   S47       1.0  0.97323  0.32208  0.71724  1.0000
  S   S48       1.0  0.74539  0.06411  0.84687  1.0000
  C   C134      1.0  0.91181  0.15818  0.77037  1.0000
  C   C135      1.0  0.81424  0.10160  0.97816  1.0000
  H   H128      1.0  0.82416  0.12996  0.88420  1.0000
  C   C136      1.0  0.91814  0.18782  0.73938  1.0000
  C   C137      1.0  0.87397  0.13196  0.76969  1.0000
  S   S49       1.0  0.62879  0.07535  0.78642  1.0000
  H   H129      1.0  0.52841  0.10208  0.77750  1.0000
  H   H130      1.0  0.93586  0.15611  0.79516  1.0000
  Fe  Fe26      1.0  0.80633  0.05280  0.80673  1.0000
  H   H131      1.0  0.68663  0.10411  0.97893  1.0000
  H   H132      1.0  0.81332  0.11536  0.73699  1.0000
  H   H133      1.0  0.79888  0.11631  0.00487  1.0000
  C   C138      1.0  0.53620  0.06326  0.77714  1.0000
  C   C139      1.0  0.70756  0.06919  0.98388  1.0000
  H   H134      1.0  0.58883  0.09330  0.86772  1.0000
  C   C140      1.0  0.88654  0.19138  0.70760  1.0000
  Fe  Fe27      1.0  0.70332  0.03719  0.79758  1.0000
  C   C141      1.0  0.82794  0.10909  0.91047  1.0000
  C   C142      1.0  0.55820  0.07545  0.87069  1.0000
  H   H135      1.0  0.99457  0.42055  0.75309  1.0000
  C   C143      1.0  0.72204  0.03894  0.95242  1.0000
  N   N12       1.0  0.85547  0.03467  0.94272  1.0000
  H   H136      1.0  0.86589  0.04645  0.88323  1.0000
  C   C144      1.0  0.83820  0.05436  0.97670  1.0000
  S   S50       1.0  0.76247  0.03357  0.75589  1.0000
  C   C145      1.0  0.58334  0.04031  0.77902  1.0000
  H   H137      1.0  0.71212  0.05053  0.92341  1.0000
  H   H138      1.0  0.98254  0.50920  0.75225  1.0000
  C   C146      1.0  0.72071  0.05459  0.02165  1.0000
  C   C147      1.0  0.01834  0.48951  0.75228  1.0000
  C   C148      1.0  0.89650  0.72003  0.23013  1.0000
  H   H139      1.0  0.00263  0.63987  0.18428  1.0000
  S   S51       1.0  0.90492  0.79904  0.30848  1.0000
  Fe  Fe28      1.0  0.78201  0.97800  0.16254  1.0000
  S   S52       1.0  0.84757  0.92278  0.15921  1.0000
  C   C149      1.0  0.88199  0.00852  0.23380  1.0000
  S   S53       1.0  0.61401  0.97538  0.19567  1.0000
  S   S54       1.0  0.71505  0.98132  0.12671  1.0000
  Fe  Fe29      1.0  0.98332  0.77282  0.31154  1.0000
  C   C150      1.0  0.88876  0.83392  0.26726  1.0000
  C   C151      1.0  0.84138  0.85427  0.26036  1.0000
  C   C152      1.0  0.82833  0.88200  0.22734  1.0000
  C   C153      1.0  0.86256  0.88879  0.20093  1.0000
  C   C154      1.0  0.90981  0.86825  0.20780  1.0000
  C   C155      1.0  0.92298  0.84143  0.24111  1.0000
  H   H140      1.0  0.81473  0.84859  0.28049  1.0000
  H   H141      1.0  0.79162  0.89705  0.22187  1.0000
  H   H142      1.0  0.93647  0.87359  0.18754  1.0000
  H   H143      1.0  0.95974  0.82701  0.24654  1.0000
  N   N13       1.0  0.91808  0.67935  0.24835  1.0000
  C   C156      1.0  0.97377  0.54682  0.33007  1.0000
  C   C157      1.0  0.87377  0.93113  0.33660  1.0000
  C   C158      1.0  0.83957  0.99092  0.29055  1.0000
  H   H144      1.0  0.94472  0.89688  0.32503  1.0000
  H   H145      1.0  0.99414  0.61733  0.32979  1.0000
  H   H146      1.0  0.90756  0.62895  0.29124  1.0000
  H   H147      1.0  0.80313  0.97099  0.33989  1.0000
  H   H148      1.0  0.89563  0.76582  0.18075  1.0000
  C   C159      1.0  0.00256  0.58049  0.32010  1.0000
  H   H149      1.0  0.60755  0.96420  0.10660  1.0000
  H   H150      1.0  0.94956  0.94246  0.26548  1.0000
  H   H151      1.0  0.92505  0.68454  0.30901  1.0000
  H   H152      1.0  0.80994  0.01748  0.28104  1.0000
  C   C160      1.0  0.90331  0.66839  0.28682  1.0000
  H   H153      1.0  0.97345  0.61897  0.24681  1.0000
  C   C161      1.0  0.74782  0.00947  0.02784  1.0000
  C   C162      1.0  0.95044  0.70380  0.17777  1.0000
  C   C163      1.0  0.83569  0.96511  0.32408  1.0000
  C   C164      1.0  0.95552  0.65062  0.23204  1.0000
  N   N14       1.0  0.87980  0.98223  0.26960  1.0000
  H   H154      1.0  0.86550  0.68337  0.29122  1.0000
  H   H155      1.0  0.86749  0.74337  0.24344  1.0000
  S   S55       1.0  0.74449  0.99741  0.21740  1.0000
  C   C165      1.0  0.91227  0.73289  0.19460  1.0000
  C   C166      1.0  0.97218  0.66227  0.19650  1.0000
  C   C167      1.0  0.91772  0.94978  0.28215  1.0000
  Fe  Fe30      1.0  0.67787  0.00831  0.18060  1.0000
  C   C168      1.0  0.91533  0.92396  0.31591  1.0000
  H   H156      1.0  0.75901  0.99820  0.05670  1.0000
  C   C169      1.0  0.55772  0.01112  0.19338  1.0000
  H   H157      1.0  0.91260  0.99268  0.21630  1.0000
  H   H158      1.0  0.96364  0.71390  0.15062  1.0000
  H   H159      1.0  0.84984  0.00648  0.21551  1.0000
  C   C170      1.0  0.57981  0.99353  0.09845  1.0000
  C   C171      1.0  0.53213  0.98854  0.10115  1.0000
  S   S56       1.0  0.01980  0.74004  0.25930  1.0000
  S   S57       1.0  0.01838  0.71501  0.35151  1.0000
  H   H160      1.0  0.94311  0.55793  0.34743  1.0000
  H   H161      1.0  0.52353  0.95480  0.11113  1.0000
  C   C172      1.0  0.00265  0.78315  0.48904  1.0000
  C   C173      1.0  0.93222  0.89467  0.65337  1.0000
  H   H162      1.0  0.95296  0.85798  0.65611  1.0000
  H   H163      1.0  0.96464  0.78447  0.48736  1.0000
  H   H164      1.0  0.99289  0.67262  0.53967  1.0000
  H   H165      1.0  0.01191  0.60525  0.65510  1.0000
  C   C174      1.0  0.99174  0.53490  0.65631  1.0000
  H   H166      1.0  0.94871  0.91420  0.63131  1.0000
  H   H167      1.0  0.89598  0.88994  0.64319  1.0000
  S   S58       1.0  0.99431  0.77888  0.56738  1.0000
  S   S59       1.0  0.01655  0.70544  0.66140  1.0000
  H   H168      1.0  0.01021  0.78181  0.42722  1.0000
  H   H169      1.0  0.86030  0.83051  0.68462  1.0000
  H   H170      1.0  0.95423  0.54860  0.65727  1.0000
  H   H171      1.0  0.87096  0.90973  0.36190  1.0000
  H   H172      1.0  0.86653  0.96738  0.67487  1.0000
  N   N15       1.0  0.93062  0.92104  0.69023  1.0000
  H   H173      1.0  0.02157  0.68217  0.47427  1.0000
  H   H174      1.0  0.93973  0.78192  0.69574  1.0000
  H   H175      1.0  0.63641  0.01670  0.85758  1.0000
  C   C175      1.0  0.87807  0.83137  0.71254  1.0000
  S   S60       1.0  0.71981  0.95967  0.81409  1.0000
  Fe  Fe31      1.0  0.78245  0.95775  0.77642  1.0000
  S   S61       1.0  0.80438  0.90087  0.73142  1.0000
  Fe  Fe32      1.0  0.76568  0.98625  0.86047  1.0000
  C   C176      1.0  0.55568  0.96308  0.77626  1.0000
  H   H176      1.0  0.62912  0.97200  0.77776  1.0000
  C   C177      1.0  0.94619  0.80543  0.75473  1.0000
  C   C178      1.0  0.92385  0.83315  0.78469  1.0000
  C   C179      1.0  0.87933  0.86117  0.77821  1.0000
  C   C180      1.0  0.85691  0.86128  0.74185  1.0000
  H   H177      1.0  0.92771  0.99361  0.78586  1.0000
  H   H178      1.0  0.78284  0.94422  0.00157  1.0000
  H   H179      1.0  0.87506  0.96800  0.91304  1.0000
  H   H180      1.0  0.86244  0.88252  0.80137  1.0000
  S   S62       1.0  0.83019  0.97676  0.82451  1.0000
  C   C181      1.0  0.74942  0.99390  0.95874  1.0000
  C   C182      1.0  0.92294  0.80386  0.71881  1.0000
  C   C183      1.0  0.89494  0.95865  0.69624  1.0000
  H   H181      1.0  0.86546  0.96261  0.96289  1.0000
  C   C184      1.0  0.76167  0.97903  0.99651  1.0000
  C   C185      1.0  0.59300  0.99011  0.77759  1.0000
  H   H182      1.0  0.86525  0.01515  0.73533  1.0000
  C   C186      1.0  0.61124  0.99809  0.87309  1.0000
  S   S63       1.0  0.77139  0.95631  0.92038  1.0000
  C   C187      1.0  0.96505  0.93486  0.75267  1.0000
  H   H183      1.0  0.94148  0.83385  0.81268  1.0000
  H   H184      1.0  0.91860  0.98408  0.94798  1.0000
  S   S64       1.0  0.00435  0.77584  0.76195  1.0000
  C   C188      1.0  0.89373  0.98555  0.73052  1.0000
  H   H185      1.0  0.61138  0.96281  0.85829  1.0000
  H   H186      1.0  0.56344  0.92426  0.77581  1.0000
  C   C189      1.0  0.88022  0.98502  0.94168  1.0000
  C   C190      1.0  0.92893  0.97342  0.75892  1.0000
  H   H187      1.0  0.01462  0.58114  0.73712  1.0000
  N   N16       1.0  0.56357  0.02642  0.87226  1.0000
  H   H188      1.0  0.62448  0.99216  0.90331  1.0000
  H   H189      1.0  0.52891  0.96496  0.87538  1.0000
  C   C191      1.0  0.96563  0.90924  0.71778  1.0000
  H   H190      1.0  0.99198  0.92410  0.77488  1.0000
  C   C192      1.0  0.52482  0.00383  0.87480  1.0000
  H   H191      1.0  0.99350  0.87891  0.71348  1.0000
  H   H192      1.0  0.84153  0.03307  0.00268  1.0000
