data_image0
_chemical_formula_structural       H2C2H2SC4H2C2HCNHCH2C2HCNCHC2H2CH2C3H2FeSCFeSHFeCFeS3CHC2H4C3HC2H2SNSC3H2CHSH4C5HSFeSCFeSFeSNCFeS2CFeC2SH2FeC6H4CSCSHC3H3CFeH2CH4SH2SH2CHCH4CHNC4H2C3H5C2HSFeHCHCSNCH3SC2H2CH2C4H4CFeS2FeS2FeHFeHS3C2HC2H4CH3C3HC2H2C4H4C2NHSC2H2CHNHCFeS2FeS2FeCFeS3C2HCH2CHNHC2HCHCHC3HC2HC2HSH2CHNC2HCH2CH3CH2SCHC3H2CSC2H2NHCH3C3HCHCHCH2CHC3HC2HC2HCHCFeS2FeHFeSCSHFeS2NHFeHSFeC6H4CHSHSC3H5C2HS2HC2FeCNH3FeS2FeS2FeCFeNS2CHCH2C2SHCHCHC3HCHCH2CH2CSH2CSHC2HCHC3NSC2HC3HC2SH6FeNSHC2H
_chemical_formula_sum              "H192 C192 S64 N16 Fe32"
_cell_length_a       28.4533
_cell_length_b       31.0526
_cell_length_c       31.3324
_cell_angle_alpha    90.3211
_cell_angle_beta     90.0473
_cell_angle_gamma    90.581

_space_group_name_H-M_alt    "P 1"
_space_group_IT_number       1

loop_
  _space_group_symop_operation_xyz
  'x, y, z'

loop_
  _atom_site_type_symbol
  _atom_site_label
  _atom_site_symmetry_multiplicity
  _atom_site_fract_x
  _atom_site_fract_y
  _atom_site_fract_z
  _atom_site_occupancy
  H   H1        1.0  0.27123  0.23696  0.45558  1.0000
  H   H2        1.0  0.03523  0.16311  0.48397  1.0000
  C   C1        1.0  0.26364  0.26436  0.47578  1.0000
  C   C2        1.0  0.50028  0.09455  0.02602  1.0000
  H   H3        1.0  0.06412  0.17287  0.43344  1.0000
  H   H4        1.0  0.48485  0.24340  0.30270  1.0000
  S   S1        1.0  0.45815  0.32321  0.34115  1.0000
  C   C3        1.0  0.47803  0.31106  0.28917  1.0000
  C   C4        1.0  0.27207  0.34100  0.49086  1.0000
  C   C5        1.0  0.28161  0.30533  0.46495  1.0000
  C   C6        1.0  0.39669  0.30777  0.19350  1.0000
  H   H5        1.0  0.36846  0.30646  0.29502  1.0000
  H   H6        1.0  0.30284  0.30927  0.43659  1.0000
  C   C7        1.0  0.48984  0.26837  0.27912  1.0000
  C   C8        1.0  0.11191  0.04418  0.47574  1.0000
  H   H7        1.0  0.40874  0.27481  0.19093  1.0000
  C   C9        1.0  0.36184  0.29118  0.26337  1.0000
  N   N1        1.0  0.37298  0.32145  0.22900  1.0000
  H   H8        1.0  0.32435  0.28110  0.26143  1.0000
  C   C10       1.0  0.07841  0.07356  0.46166  1.0000
  H   H9        1.0  0.01949  0.13155  0.43778  1.0000
  H   H10       1.0  0.42809  0.32585  0.13339  1.0000
  C   C11       1.0  0.04936  0.14758  0.45465  1.0000
  C   C12       1.0  0.23603  0.25862  0.51257  1.0000
  H   H11       1.0  0.04563  0.06132  0.44844  1.0000
  C   C13       1.0  0.12696  0.13215  0.48389  1.0000
  N   N2        1.0  0.08594  0.11693  0.46645  1.0000
  C   C14       1.0  0.48466  0.34312  0.25858  1.0000
  H   H12       1.0  0.38441  0.26220  0.26198  1.0000
  C   C15       1.0  0.16139  0.10369  0.49792  1.0000
  C   C16       1.0  0.15345  0.05944  0.49434  1.0000
  H   H13       1.0  0.13294  0.16653  0.48776  1.0000
  H   H14       1.0  0.50301  0.12512  0.04263  1.0000
  C   C17       1.0  0.40767  0.33656  0.16069  1.0000
  H   H15       1.0  0.38809  0.05037  0.06141  1.0000
  H   H16       1.0  0.46279  0.03880  0.10086  1.0000
  C   C18       1.0  0.50325  0.33248  0.21832  1.0000
  C   C19       1.0  0.35828  0.36315  0.23221  1.0000
  C   C20       1.0  0.50858  0.25776  0.23894  1.0000
  H   H17       1.0  0.50836  0.35744  0.19473  1.0000
  H   H18       1.0  0.19355  0.11600  0.51235  1.0000
  Fe  Fe1       1.0  0.09930  0.12078  0.61040  1.0000
  S   S2        1.0  0.17832  0.12411  0.61027  1.0000
  C   C21       1.0  0.10307  0.27728  0.83496  1.0000
  Fe  Fe2       1.0  0.09131  0.21196  0.64624  1.0000
  S   S3        1.0  0.16977  0.22193  0.64747  1.0000
  H   H19       1.0  0.13781  0.29774  0.69664  1.0000
  Fe  Fe3       1.0  0.16984  0.19047  0.58303  1.0000
  C   C22       1.0  0.33715  0.06085  0.69506  1.0000
  Fe  Fe4       1.0  0.17152  0.15491  0.67468  1.0000
  S   S4        1.0  0.21975  0.14388  0.73139  1.0000
  S   S5        1.0  0.09109  0.18508  0.57899  1.0000
  S   S6        1.0  0.09293  0.14697  0.67761  1.0000
  C   C23       1.0  0.13675  0.31715  0.72652  1.0000
  H   H20       1.0  0.17383  0.23909  0.73718  1.0000
  C   C24       1.0  0.10780  0.30339  0.79892  1.0000
  C   C25       1.0  0.22650  0.29429  0.53850  1.0000
  H   H21       1.0  0.08214  0.28805  0.86189  1.0000
  H   H22       1.0  0.09041  0.33435  0.79860  1.0000
  H   H23       1.0  0.28311  0.11310  0.79558  1.0000
  H   H24       1.0  0.43611  0.11067  0.99325  1.0000
  C   C26       1.0  0.23421  0.09101  0.74739  1.0000
  C   C27       1.0  0.26751  0.08525  0.78000  1.0000
  C   C28       1.0  0.14938  0.22301  0.79970  1.0000
  H   H25       1.0  0.16578  0.19152  0.79929  1.0000
  C   C29       1.0  0.21416  0.05477  0.72758  1.0000
  C   C30       1.0  0.02348  0.05115  0.54970  1.0000
  H   H26       1.0  0.20521  0.29034  0.56682  1.0000
  H   H27       1.0  0.23684  0.36268  0.54784  1.0000
  S   S7        1.0  0.04555  0.26931  0.66295  1.0000
  N   N3        1.0  0.13207  0.28929  0.76393  1.0000
  S   S8        1.0  0.07009  0.05654  0.58669  1.0000
  C   C31       1.0  0.02189  0.25099  0.74699  1.0000
  C   C32       1.0  0.46241  0.08626  0.99809  1.0000
  C   C33       1.0  0.15355  0.25003  0.76434  1.0000
  H   H28       1.0  0.16927  0.33700  0.72898  1.0000
  H   H29       1.0  0.38957  0.08922  0.73641  1.0000
  C   C34       1.0  0.37585  0.05965  0.72238  1.0000
  H   H30       1.0  0.03699  0.21955  0.74181  1.0000
  S   S9        1.0  0.21409  0.20642  0.52462  1.0000
  H   H31       1.0  0.10582  0.33852  0.72321  1.0000
  H   H32       1.0  0.18828  0.05877  0.70261  1.0000
  H   H33       1.0  0.32035  0.09128  0.68800  1.0000
  H   H34       1.0  0.11971  0.21579  0.86253  1.0000
  C   C35       1.0  0.28135  0.04362  0.79218  1.0000
  C   C36       1.0  0.12376  0.23670  0.83513  1.0000
  C   C37       1.0  0.45773  0.04621  0.97726  1.0000
  C   C38       1.0  0.02075  0.28063  0.71357  1.0000
  C   C39       1.0  0.24448  0.33526  0.52766  1.0000
  H   H35       1.0  0.30751  0.03961  0.81689  1.0000
  S   S10       1.0  0.10662  0.60688  0.02910  1.0000
  Fe  Fe5       1.0  0.11526  0.64815  0.08891  1.0000
  S   S11       1.0  0.18856  0.67488  0.09916  1.0000
  C   C40       1.0  0.36512  0.55773  0.49392  1.0000
  Fe  Fe6       1.0  0.17431  0.66396  0.16901  1.0000
  S   S12       1.0  0.22795  0.64460  0.21912  1.0000
  Fe  Fe7       1.0  0.41555  0.38277  0.35738  1.0000
  S   S13       1.0  0.10366  0.63244  0.15833  1.0000
  N   N4        1.0  0.12812  0.58194  0.28236  1.0000
  C   C41       1.0  0.15343  0.61729  0.29556  1.0000
  Fe  Fe8       1.0  0.33810  0.44311  0.32829  1.0000
  S   S14       1.0  0.41705  0.44754  0.32553  1.0000
  S   S15       1.0  0.29172  0.45566  0.27049  1.0000
  C   C42       1.0  0.06404  0.62739  0.26206  1.0000
  Fe  Fe9       1.0  0.41196  0.47461  0.39252  1.0000
  C   C43       1.0  0.13486  0.65862  0.29173  1.0000
  C   C44       1.0  0.08394  0.58654  0.26580  1.0000
  S   S16       1.0  0.33286  0.47446  0.39263  1.0000
  H   H36       1.0  0.35706  0.42595  0.20306  1.0000
  H   H37       1.0  0.14752  0.52225  0.25445  1.0000
  Fe  Fe10      1.0  0.33827  0.40784  0.42003  1.0000
  C   C45       1.0  0.24664  0.59181  0.23130  1.0000
  C   C46       1.0  0.23095  0.55568  0.20833  1.0000
  C   C47       1.0  0.24546  0.51417  0.22039  1.0000
  C   C48       1.0  0.27542  0.50843  0.25561  1.0000
  C   C49       1.0  0.29110  0.54459  0.27849  1.0000
  C   C50       1.0  0.27688  0.58604  0.26627  1.0000
  H   H38       1.0  0.20773  0.55971  0.18131  1.0000
  H   H39       1.0  0.23324  0.48637  0.20244  1.0000
  H   H40       1.0  0.31435  0.54066  0.30551  1.0000
  H   H41       1.0  0.28939  0.61383  0.28410  1.0000
  C   C51       1.0  0.37066  0.48123  0.51175  1.0000
  S   S17       1.0  0.41711  0.41022  0.42433  1.0000
  C   C52       1.0  0.49657  0.58617  0.47137  1.0000
  S   S18       1.0  0.44472  0.53823  0.41421  1.0000
  H   H42       1.0  0.18506  0.53960  0.29707  1.0000
  C   C53       1.0  0.08983  0.66356  0.27504  1.0000
  C   C54       1.0  0.39359  0.37937  0.16411  1.0000
  C   C55       1.0  0.48694  0.54461  0.45529  1.0000
  H   H43       1.0  0.06406  0.55859  0.25488  1.0000
  H   H44       1.0  0.34077  0.47467  0.49112  1.0000
  H   H45       1.0  0.12722  0.51927  0.30922  1.0000
  C   C56       1.0  0.14786  0.53867  0.28607  1.0000
  Fe  Fe11      1.0  0.07538  0.70000  0.16399  1.0000
  H   H46       1.0  0.15584  0.68664  0.30062  1.0000
  H   H47       1.0  0.47598  0.37617  0.26608  1.0000
  C   C57       1.0  0.36850  0.39278  0.19998  1.0000
  H   H48       1.0  0.40226  0.40218  0.13914  1.0000
  H   H49       1.0  0.18888  0.61395  0.30779  1.0000
  H   H50       1.0  0.47874  0.61355  0.45789  1.0000
  H   H51       1.0  0.01828  0.59191  0.07441  1.0000
  S   S19       1.0  0.29403  0.39316  0.47866  1.0000
  H   H52       1.0  0.50325  0.47736  0.46059  1.0000
  H   H53       1.0  0.39055  0.58437  0.48756  1.0000
  S   S20       1.0  0.33678  0.37607  0.35565  1.0000
  H   H54       1.0  0.02932  0.63128  0.24820  1.0000
  H   H55       1.0  0.35221  0.54685  0.46206  1.0000
  C   C58       1.0  0.01753  0.57358  0.04496  1.0000
  H   H56       1.0  0.07513  0.69537  0.27158  1.0000
  C   C59       1.0  0.05601  0.57523  0.01730  1.0000
  H   H57       1.0  0.33522  0.57007  0.51294  1.0000
  H   H58       1.0  0.33868  0.37387  0.25991  1.0000
  H   H59       1.0  0.43819  0.56322  0.54742  1.0000
  H   H60       1.0  0.08416  0.55215  0.95762  1.0000
  C   C60       1.0  0.42466  0.53066  0.54347  1.0000
  H   H61       1.0  0.47699  0.50384  0.58532  1.0000
  N   N5        1.0  0.38780  0.52230  0.51647  1.0000
  C   C61       1.0  0.43014  0.45500  0.55968  1.0000
  C   C62       1.0  0.44667  0.49714  0.56517  1.0000
  C   C63       1.0  0.19608  0.67610  0.98042  1.0000
  C   C64       1.0  0.39165  0.44696  0.53310  1.0000
  H   H62       1.0  0.12909  0.69422  0.00568  1.0000
  H   H63       1.0  0.44717  0.42861  0.57589  1.0000
  C   C65       1.0  0.05444  0.55117  0.97911  1.0000
  C   C66       1.0  0.15932  0.70485  0.98734  1.0000
  C   C67       1.0  0.01492  0.52539  0.96878  1.0000
  H   H64       1.0  0.01442  0.50659  0.93962  1.0000
  H   H65       1.0  0.48706  0.69354  0.76303  1.0000
  H   H66       1.0  0.37816  0.41437  0.52867  1.0000
  H   H67       1.0  0.19419  0.64383  0.99361  1.0000
  H   H68       1.0  0.26425  0.66759  0.95191  1.0000
  C   C68       1.0  0.23515  0.68936  0.95686  1.0000
  C   C69       1.0  0.37686  0.90741  0.02169  1.0000
  H   H69       1.0  0.06825  0.82747  0.29752  1.0000
  S   S21       1.0  0.17112  0.80262  0.07706  1.0000
  Fe  Fe12      1.0  0.15336  0.73855  0.10815  1.0000
  H   H70       1.0  0.03409  0.89442  0.22248  1.0000
  C   C70       1.0  0.03747  0.81035  0.28583  1.0000
  H   H71       1.0  0.07696  0.77076  0.24213  1.0000
  C   C71       1.0  0.25542  0.77751  0.04108  1.0000
  S   S22       1.0  0.08105  0.71277  0.09361  1.0000
  N   N6        1.0  0.40091  0.94371  0.04278  1.0000
  C   C72       1.0  0.04249  0.77810  0.25449  1.0000
  H   H72       1.0  0.35267  0.89107  0.04437  1.0000
  H   H73       1.0  0.45743  0.90526  0.06520  1.0000
  H   H74       1.0  0.25245  0.74867  0.06014  1.0000
  S   S23       1.0  0.14493  0.73057  0.17901  1.0000
  C   C73       1.0  0.44178  0.93695  0.06471  1.0000
  C   C74       1.0  0.22113  0.80927  0.04419  1.0000
  H   H75       1.0  0.49778  0.96607  0.10224  1.0000
  H   H76       1.0  0.10486  0.00984  0.47367  1.0000
  C   C75       1.0  0.02694  0.83277  0.16288  1.0000
  H   H77       1.0  0.34948  0.98947  0.02390  1.0000
  H   H78       1.0  0.17908  0.03706  0.50663  1.0000
  C   C76       1.0  0.40271  0.01832  0.06360  1.0000
  C   C77       1.0  0.46445  0.97096  0.08618  1.0000
  C   C78       1.0  0.44465  0.01185  0.08562  1.0000
  C   C79       1.0  0.38122  0.98372  0.04215  1.0000
  H   H79       1.0  0.06008  0.83257  0.18171  1.0000
  H   H80       1.0  0.03308  0.85088  0.13292  1.0000
  H   H81       1.0  0.01879  0.79856  0.15478  1.0000
  H   H82       1.0  0.19937  0.87153  0.02180  1.0000
  C   C80       1.0  0.22569  0.84672  0.01944  1.0000
  Fe  Fe13      1.0  0.35972  0.88162  0.90894  1.0000
  S   S24       1.0  0.43204  0.91082  0.91602  1.0000
  S   S25       1.0  0.34385  0.82316  0.95003  1.0000
  Fe  Fe14      1.0  0.33494  0.94144  0.83506  1.0000
  S   S26       1.0  0.40523  0.97471  0.83672  1.0000
  S   S27       1.0  0.28077  0.95461  0.78368  1.0000
  Fe  Fe15      1.0  0.43485  0.90822  0.84420  1.0000
  H   H83       1.0  0.28742  0.02302  0.65864  1.0000
  Fe  Fe16      1.0  0.39620  0.97424  0.90797  1.0000
  H   H84       1.0  0.26612  0.88038  0.97132  1.0000
  S   S28       1.0  0.36531  0.87461  0.83760  1.0000
  S   S29       1.0  0.32315  0.94532  0.90597  1.0000
  S   S30       1.0  0.40633  0.03515  0.94726  1.0000
  C   C81       1.0  0.26171  0.00739  0.77199  1.0000
  C   C82       1.0  0.26357  0.85189  0.99094  1.0000
  H   H85       1.0  0.48864  0.98394  0.96782  1.0000
  C   C83       1.0  0.46545  0.74061  0.80943  1.0000
  C   C84       1.0  0.22769  0.01316  0.74002  1.0000
  H   H86       1.0  0.37265  0.92376  0.75007  1.0000
  H   H87       1.0  0.13571  0.80922  0.98185  1.0000
  H   H88       1.0  0.43134  0.84257  0.75958  1.0000
  H   H89       1.0  0.03486  0.98316  0.54070  1.0000
  C   C85       1.0  0.47020  0.79972  0.71823  1.0000
  H   H90       1.0  0.45520  0.79170  0.85540  1.0000
  H   H91       1.0  0.32291  0.95349  0.67866  1.0000
  H   H92       1.0  0.26735  0.74196  0.92238  1.0000
  C   C86       1.0  0.29745  0.81976  0.98737  1.0000
  C   C87       1.0  0.39718  0.94074  0.72811  1.0000
  C   C88       1.0  0.12267  0.77544  0.97903  1.0000
  H   H93       1.0  0.21217  0.98531  0.72436  1.0000
  C   C89       1.0  0.46576  0.83170  0.75002  1.0000
  C   C90       1.0  0.31869  0.02249  0.67847  1.0000
  H   H94       1.0  0.20139  0.79136  0.93533  1.0000
  H   H95       1.0  0.43899  0.78622  0.70336  1.0000
  C   C91       1.0  0.49877  0.71603  0.78758  1.0000
  C   C92       1.0  0.19935  0.75881  0.94765  1.0000
  C   C93       1.0  0.50590  0.84906  0.76964  1.0000
  C   C94       1.0  0.33896  0.98330  0.68986  1.0000
  H   H96       1.0  0.42544  0.01934  0.75425  1.0000
  H   H97       1.0  0.42837  0.73711  0.80200  1.0000
  H   H98       1.0  0.43177  0.94430  0.74445  1.0000
  H   H99       1.0  0.40266  0.92029  0.69938  1.0000
  C   C95       1.0  0.39572  0.01994  0.73258  1.0000
  C   C96       1.0  0.49188  0.01485  0.98365  1.0000
  N   N7        1.0  0.37733  0.98243  0.71618  1.0000
  H   H100      1.0  0.09694  0.77285  0.95250  1.0000
  S   S31       1.0  0.50228  0.88749  0.81147  1.0000
  C   C97       1.0  0.23674  0.73087  0.94004  1.0000
  C   C98       1.0  0.01430  0.01060  0.53111  1.0000
  H   H101      1.0  0.35611  0.91828  0.99378  1.0000
  H   H102      1.0  0.10468  0.76819  0.00972  1.0000
  C   C99       1.0  0.48047  0.77116  0.83943  1.0000
  H   H103      1.0  0.31980  0.75802  0.01061  1.0000
  N   N8        1.0  0.16168  0.74585  0.97167  1.0000
  H   H104      1.0  0.40234  0.88345  0.00934  1.0000
  C   C100      1.0  0.29360  0.78293  0.01303  1.0000
  Fe  Fe17      1.0  0.67743  0.20139  0.10036  1.0000
  S   S32       1.0  0.60262  0.19929  0.07703  1.0000
  S   S33       1.0  0.74584  0.22556  0.07142  1.0000
  Fe  Fe18      1.0  0.65256  0.15804  0.18549  1.0000
  S   S34       1.0  0.57556  0.15293  0.16974  1.0000
  S   S35       1.0  0.68503  0.14167  0.24949  1.0000
  Fe  Fe19      1.0  0.59994  0.13215  0.10421  1.0000
  C   C101      1.0  0.79028  0.28584  0.02186  1.0000
  Fe  Fe20      1.0  0.58378  0.22023  0.14424  1.0000
  S   S36       1.0  0.53634  0.27751  0.15684  1.0000
  S   S37       1.0  0.67654  0.13278  0.12245  1.0000
  S   S38       1.0  0.65887  0.22696  0.16509  1.0000
  C   C102      1.0  0.81392  0.09502  0.14019  1.0000
  C   C103      1.0  0.71677  0.09315  0.25417  1.0000
  H   H105      1.0  0.81101  0.22283  0.20261  1.0000
  C   C104      1.0  0.62129  0.24200  0.28414  1.0000
  H   H106      1.0  0.66103  0.32236  0.25401  1.0000
  H   H107      1.0  0.63996  0.22931  0.25678  1.0000
  C   C105      1.0  0.78304  0.20129  0.18961  1.0000
  H   H108      1.0  0.73954  0.10719  0.31846  1.0000
  N   N9        1.0  0.80089  0.15751  0.18406  1.0000
  H   H109      1.0  0.61732  0.17988  0.31453  1.0000
  C   C106      1.0  0.74728  0.26553  0.03146  1.0000
  C   C107      1.0  0.79787  0.13719  0.14525  1.0000
  H   H110      1.0  0.77101  0.21529  0.15895  1.0000
  C   C108      1.0  0.58413  0.22958  0.35220  1.0000
  H   H111      1.0  0.70015  0.06955  0.19116  1.0000
  C   C109      1.0  0.76938  0.04769  0.29566  1.0000
  H   H112      1.0  0.57327  0.20794  0.37749  1.0000
  C   C110      1.0  0.81988  0.13692  0.21838  1.0000
  C   C111      1.0  0.83717  0.09510  0.21424  1.0000
  C   C112      1.0  0.83378  0.07395  0.17496  1.0000
  H   H113      1.0  0.82070  0.15242  0.24949  1.0000
  C   C113      1.0  0.71935  0.06374  0.22030  1.0000
  C   C114      1.0  0.96139  0.08120  0.50610  1.0000
  H   H114      1.0  0.78236  0.15327  0.11807  1.0000
  C   C115      1.0  0.74145  0.08472  0.29203  1.0000
  C   C116      1.0  0.60854  0.21381  0.31689  1.0000
  H   H115      1.0  0.81018  0.07862  0.10970  1.0000
  S   S39       1.0  0.57767  0.06892  0.07282  1.0000
  H   H116      1.0  0.94067  0.10862  0.49673  1.0000
  H   H117      1.0  0.75266  0.20085  0.21184  1.0000
  C   C117      1.0  0.58692  0.30061  0.32134  1.0000
  H   H118      1.0  0.61692  0.29752  0.21992  1.0000
  N   N10       1.0  0.60978  0.28465  0.28631  1.0000
  C   C118      1.0  0.51520  0.28979  0.20834  1.0000
  C   C119      1.0  0.53356  0.06265  0.03349  1.0000
  H   H119      1.0  0.60190  0.34321  0.25135  1.0000
  C   C120      1.0  0.62327  0.31342  0.25135  1.0000
  H   H120      1.0  0.82133  0.27817  0.04014  1.0000
  H   H121      1.0  0.85113  0.07840  0.24177  1.0000
  C   C121      1.0  0.57334  0.27327  0.35457  1.0000
  H   H122      1.0  0.55327  0.28582  0.38130  1.0000
  H   H123      1.0  0.51743  0.22474  0.23148  1.0000
  H   H124      1.0  0.57725  0.33430  0.32306  1.0000
  C   C122      1.0  0.95276  0.04083  0.48698  1.0000
  H   H125      1.0  0.78911  0.04205  0.32459  1.0000
  H   H126      1.0  0.84513  0.04079  0.17201  1.0000
  S   S40       1.0  0.96859  0.31807  0.84740  1.0000
  C   C123      1.0  0.79608  0.23361  0.92385  1.0000
  H   H127      1.0  0.80300  0.29957  0.79509  1.0000
  C   C124      1.0  0.87174  0.25656  0.89720  1.0000
  C   C125      1.0  0.84941  0.27445  0.86180  1.0000
  C   C126      1.0  0.75390  0.32536  0.96398  1.0000
  H   H128      1.0  0.90963  0.25942  0.90062  1.0000
  H   H129      1.0  0.74921  0.27248  0.80913  1.0000
  C   C127      1.0  0.77818  0.29313  0.82175  1.0000
  S   S41       1.0  0.75772  0.35896  0.91865  1.0000
  C   C128      1.0  0.71076  0.30540  0.97391  1.0000
  C   C129      1.0  0.99676  0.08643  0.53720  1.0000
  H   H130      1.0  0.76331  0.32437  0.83248  1.0000
  H   H131      1.0  0.86148  0.22295  0.95656  1.0000
  N   N11       1.0  0.80153  0.27227  0.85776  1.0000
  H   H132      1.0  0.82688  0.33104  0.98131  1.0000
  C   C130      1.0  0.79352  0.31591  0.98852  1.0000
  H   H133      1.0  0.77463  0.21907  0.94866  1.0000
  H   H134      1.0  0.67990  0.31256  0.95513  1.0000
  H   H135      1.0  0.73679  0.25277  0.88637  1.0000
  C   C131      1.0  0.77485  0.25255  0.88841  1.0000
  C   C132      1.0  0.84481  0.23603  0.92839  1.0000
  C   C133      1.0  0.98515  0.30340  0.79486  1.0000
  H   H136      1.0  0.87071  0.29059  0.83793  1.0000
  C   C134      1.0  0.70735  0.27575  0.00767  1.0000
  H   H137      1.0  0.96872  0.36438  0.76648  1.0000
  C   C135      1.0  0.98305  0.33265  0.76119  1.0000
  H   H138      1.0  0.99939  0.34424  0.69496  1.0000
  C   C136      1.0  0.00066  0.32121  0.72073  1.0000
  H   H139      1.0  0.00327  0.11768  0.55161  1.0000
  H   H140      1.0  0.00532  0.23933  0.81317  1.0000
  C   C137      1.0  0.00381  0.26227  0.78737  1.0000
  H   H141      1.0  0.67406  0.26022  0.01470  1.0000
  C   C138      1.0  0.69502  0.61223  0.51413  1.0000
  C   C139      1.0  0.52882  0.59255  0.50502  1.0000
  C   C140      1.0  0.66860  0.66577  0.46424  1.0000
  H   H142      1.0  0.94860  0.54647  0.05642  1.0000
  C   C141      1.0  0.66012  0.62809  0.48714  1.0000
  C   C142      1.0  0.74605  0.67008  0.49547  1.0000
  H   H143      1.0  0.62656  0.61140  0.48443  1.0000
  C   C143      1.0  0.54326  0.51595  0.50579  1.0000
  C   C144      1.0  0.71191  0.68688  0.46824  1.0000
  H   H144      1.0  0.64153  0.67870  0.44368  1.0000
  C   C145      1.0  0.51030  0.50947  0.47275  1.0000
  H   H145      1.0  0.77922  0.68725  0.49929  1.0000
  C   C146      1.0  0.97807  0.54780  0.03465  1.0000
  Fe  Fe21      1.0  0.90821  0.45069  0.92721  1.0000
  S   S42       1.0  0.83578  0.46364  0.90166  1.0000
  S   S43       1.0  0.92591  0.49166  0.98568  1.0000
  Fe  Fe22      1.0  0.68232  0.69930  0.61287  1.0000
  H   H146      1.0  0.95239  0.58844  0.88325  1.0000
  Fe  Fe23      1.0  0.86856  0.45650  0.83720  1.0000
  S   S44       1.0  0.85832  0.50410  0.78326  1.0000
  C   C147      1.0  0.92781  0.56076  0.87916  1.0000
  S   S45       1.0  0.94227  0.44757  0.86247  1.0000
  H   H147      1.0  0.78970  0.58069  0.95335  1.0000
  Fe  Fe24      1.0  0.65582  0.64401  0.69006  1.0000
  S   S46       1.0  0.58180  0.63490  0.66658  1.0000
  S   S47       1.0  0.67367  0.61438  0.75422  1.0000
  N   N12       1.0  0.87913  0.57532  0.88252  1.0000
  H   H148      1.0  0.78199  0.64191  0.57176  1.0000
  Fe  Fe25      1.0  0.61263  0.62428  0.60161  1.0000
  H   H149      1.0  0.87222  0.55748  0.94796  1.0000
  S   S48       1.0  0.68686  0.62829  0.62640  1.0000
  Fe  Fe26      1.0  0.82638  0.39175  0.90021  1.0000
  C   C148      1.0  0.80468  0.53090  0.77349  1.0000
  C   C149      1.0  0.76631  0.52735  0.80123  1.0000
  C   C150      1.0  0.72597  0.55249  0.79455  1.0000
  C   C151      1.0  0.72321  0.58064  0.75963  1.0000
  C   C152      1.0  0.76108  0.58327  0.73131  1.0000
  C   C153      1.0  0.80171  0.55877  0.73843  1.0000
  H   H150      1.0  0.76814  0.50606  0.82838  1.0000
  H   H151      1.0  0.69683  0.55019  0.81660  1.0000
  H   H152      1.0  0.75955  0.60498  0.70448  1.0000
  H   H153      1.0  0.83122  0.56175  0.71685  1.0000
  C   C154      1.0  0.97660  0.52349  0.99667  1.0000
  H   H154      1.0  0.93593  0.53644  0.90393  1.0000
  S   S49       1.0  0.59454  0.56360  0.56347  1.0000
  H   H155      1.0  0.57345  0.69952  0.73695  1.0000
  S   S50       1.0  0.85294  0.38549  0.83280  1.0000
  C   C155      1.0  0.78686  0.60332  0.88837  1.0000
  C   C156      1.0  0.85547  0.57173  0.92037  1.0000
  C   C157      1.0  0.80879  0.58509  0.92371  1.0000
  H   H156      1.0  0.87665  0.59609  0.81776  1.0000
  H   H157      1.0  0.79490  0.62172  0.82248  1.0000
  H   H158      1.0  0.75035  0.61296  0.89007  1.0000
  H   H159      1.0  0.93392  0.54514  0.84761  1.0000
  H   H160      1.0  0.57579  0.66101  0.77986  1.0000
  C   C158      1.0  0.85816  0.59385  0.84798  1.0000
  C   C159      1.0  0.81187  0.60837  0.85045  1.0000
  H   H161      1.0  0.76195  0.58752  0.56390  1.0000
  S   S51       1.0  0.61013  0.69429  0.58335  1.0000
  S   S52       1.0  0.89606  0.37898  0.93037  1.0000
  H   H162      1.0  0.68773  0.58320  0.53220  1.0000
  C   C160      1.0  0.57960  0.69567  0.77170  1.0000
  C   C161      1.0  0.55246  0.55742  0.52223  1.0000
  Fe  Fe27      1.0  0.92379  0.37669  0.86295  1.0000
  C   C162      1.0  0.77357  0.61717  0.54700  1.0000
  N   N13       1.0  0.73726  0.63338  0.51817  1.0000
  H   H163      1.0  0.56160  0.48863  0.51880  1.0000
  H   H164      1.0  0.80600  0.60971  0.52885  1.0000
  H   H165      1.0  0.53570  0.62464  0.51732  1.0000
  Fe  Fe28      1.0  0.84231  0.95218  0.32533  1.0000
  S   S53       1.0  0.91724  0.96581  0.34336  1.0000
  S   S54       1.0  0.81256  0.97532  0.26229  1.0000
  Fe  Fe29      1.0  0.82537  0.89639  0.40438  1.0000
  S   S55       1.0  0.89935  0.90585  0.42902  1.0000
  S   S56       1.0  0.76115  0.86437  0.43441  1.0000
  Fe  Fe30      1.0  0.89075  0.97516  0.41018  1.0000
  C   C163      1.0  0.94311  0.83937  0.17983  1.0000
  Fe  Fe31      1.0  0.92072  0.89555  0.36003  1.0000
  N   N14       1.0  0.98853  0.85229  0.18726  1.0000
  S   S57       1.0  0.81507  0.96676  0.39062  1.0000
  S   S58       1.0  0.84753  0.88091  0.33693  1.0000
  C   C164      1.0  0.91535  0.89164  0.23106  1.0000
  H   H166      1.0  0.69613  0.90534  0.49567  1.0000
  C   C165      1.0  0.95849  0.76581  0.25574  1.0000
  H   H167      1.0  0.97317  0.97427  0.48499  1.0000
  H   H168      1.0  0.83384  0.82312  0.48578  1.0000
  C   C166      1.0  0.71513  0.80950  0.48852  1.0000
  C   C167      1.0  0.99292  0.82102  0.30182  1.0000
  S   S59       1.0  0.00759  0.71520  0.19940  1.0000
  H   H169      1.0  0.73960  0.98063  0.48629  1.0000
  C   C168      1.0  0.95337  0.79863  0.28660  1.0000
  H   H170      1.0  0.74952  0.00452  0.19732  1.0000
  C   C169      1.0  0.77286  0.01883  0.26136  1.0000
  H   H171      1.0  0.91891  0.80643  0.29879  1.0000
  C   C170      1.0  0.96174  0.90460  0.23839  1.0000
  C   C171      1.0  0.74721  0.02673  0.22394  1.0000
  C   C172      1.0  0.99810  0.88465  0.21592  1.0000
  H   H172      1.0  0.88685  0.90668  0.24853  1.0000
  C   C173      1.0  0.90586  0.85876  0.20167  1.0000
  H   H173      1.0  0.86992  0.84799  0.19638  1.0000
  C   C174      1.0  0.75919  0.82527  0.47516  1.0000
  H   H174      1.0  0.92774  0.74849  0.24432  1.0000
  H   H175      1.0  0.82035  0.01081  0.48324  1.0000
  C   C175      1.0  0.97937  0.00549  0.49957  1.0000
  H   H176      1.0  0.71878  0.71656  0.45105  1.0000
  H   H177      1.0  0.93556  0.81332  0.15757  1.0000
  C   C176      1.0  0.79973  0.81125  0.49585  1.0000
  S   S60       1.0  0.98861  0.86327  0.33973  1.0000
  H   H178      1.0  0.96960  0.92905  0.26231  1.0000
  H   H179      1.0  0.68359  0.82013  0.47255  1.0000
  C   C177      1.0  0.76764  0.96452  0.50315  1.0000
  S   S61       1.0  0.90878  0.03629  0.44732  1.0000
  H   H180      1.0  0.55525  0.99826  0.01740  1.0000
  C   C178      1.0  0.00300  0.75559  0.23933  1.0000
  C   C179      1.0  0.81323  0.98160  0.50109  1.0000
  H   H181      1.0  0.58162  0.84806  0.77163  1.0000
  C   C180      1.0  0.71142  0.78064  0.52284  1.0000
  H   H182      1.0  0.68753  0.93564  0.54461  1.0000
  C   C181      1.0  0.79422  0.90667  0.54584  1.0000
  C   C182      1.0  0.75190  0.76691  0.54379  1.0000
  C   C183      1.0  0.71004  0.91164  0.52834  1.0000
  N   N15       1.0  0.75856  0.92778  0.52569  1.0000
  S   S62       1.0  0.74925  0.72959  0.58612  1.0000
  C   C184      1.0  0.55480  0.80218  0.72542  1.0000
  C   C185      1.0  0.79603  0.78215  0.53004  1.0000
  H   H183      1.0  0.58921  0.79099  0.71617  1.0000
  C   C186      1.0  0.56077  0.75120  0.82525  1.0000
  C   C187      1.0  0.52841  0.77659  0.84740  1.0000
  C   C188      1.0  0.84980  0.96038  0.52151  1.0000
  H   H184      1.0  0.78725  0.87709  0.56310  1.0000
  C   C189      1.0  0.55039  0.83458  0.75678  1.0000
  C   C190      1.0  0.84041  0.92250  0.54383  1.0000
  S   S63       1.0  0.65647  0.71559  0.67905  1.0000
  H   H185      1.0  0.82756  0.77144  0.54597  1.0000
  H   H186      1.0  0.86876  0.90542  0.55927  1.0000
  H   H187      1.0  0.67728  0.76892  0.53299  1.0000
  H   H188      1.0  0.59798  0.75632  0.83098  1.0000
  H   H189      1.0  0.70759  0.88088  0.54624  1.0000
  H   H190      1.0  0.54039  0.80151  0.86941  1.0000
  Fe  Fe32      1.0  0.58444  0.70546  0.65100  1.0000
  N   N16       1.0  0.54570  0.72153  0.79566  1.0000
  S   S64       1.0  0.51808  0.74222  0.66807  1.0000
  H   H191      1.0  0.88539  0.97312  0.51961  1.0000
  C   C191      1.0  0.52956  0.02305  0.01177  1.0000
  C   C192      1.0  0.51465  0.78445  0.70614  1.0000
  H   H192      1.0  0.61660  0.70550  0.77818  1.0000
