data_image0
_chemical_formula_structural       FeCSFeHCHS2C2HSH2C4HSH3NHCSHCHSFeCHC2FeCHSCH3C2H3NFeCFeSC3SC5SCNHCH4SH2CHFeCHCH2CHS2HCHCHC3S2CFeHFeC3H2CH4C2NC2H2C3H3FeNCSC2H4CHSHCHSCSH2CH2CFeCHCFeHC3HC2HCSHC4HFeC2SHNH2SCHCH2C3HCHC2HCH2CNHCSCHCHCH4SHCHFeH2C2HCHNH3FeCSCSHS2HCH3C3HCHCFeS2CSHC2H2C4H2CHCFe2SNCH2C4H2S2HSH2CFe2SC3H2C2HCHNH2CH2S3CH
_chemical_formula_sum              "Fe20 C120 S40 H120 N10"
_cell_length_a       27.0285
_cell_length_b       27.968
_cell_length_c       26.8498
_cell_angle_alpha    89.6346
_cell_angle_beta     87.0113
_cell_angle_gamma    99.9568

_space_group_name_H-M_alt    "P 1"
_space_group_IT_number       1

loop_
  _space_group_symop_operation_xyz
  'x, y, z'

loop_
  _atom_site_type_symbol
  _atom_site_label
  _atom_site_symmetry_multiplicity
  _atom_site_fract_x
  _atom_site_fract_y
  _atom_site_fract_z
  _atom_site_occupancy
  Fe  Fe1       1.0  0.25534  0.08244  0.20305  1.0000
  C   C1        1.0  0.15132  0.06609  0.30721  1.0000
  S   S1        1.0  0.21461  0.14644  0.20582  1.0000
  Fe  Fe2       1.0  0.35398  0.04194  0.20741  1.0000
  H   H1        1.0  0.01589  0.14062  0.03048  1.0000
  C   C2        1.0  0.48630  0.03442  0.21145  1.0000
  H   H2        1.0  0.18912  0.08410  0.31808  1.0000
  S   S2        1.0  0.31266  0.06771  0.14453  1.0000
  S   S3        1.0  0.29999  0.06387  0.26653  1.0000
  C   C3        1.0  0.13651  0.20284  0.10135  1.0000
  C   C4        1.0  0.14155  0.17302  0.06042  1.0000
  H   H3        1.0  0.48131  0.05870  0.09640  1.0000
  S   S4        1.0  0.20856  0.00861  0.19921  1.0000
  H   H4        1.0  0.15561  0.21792  0.17753  1.0000
  H   H5        1.0  0.15489  0.02853  0.29622  1.0000
  C   C5        1.0  0.16807  0.13444  0.06467  1.0000
  C   C6        1.0  0.19012  0.12595  0.10932  1.0000
  C   C7        1.0  0.18597  0.15616  0.15003  1.0000
  C   C8        1.0  0.15882  0.19443  0.14610  1.0000
  H   H6        1.0  0.11623  0.23276  0.09833  1.0000
  S   S5        1.0  0.43869  0.06916  0.20179  1.0000
  H   H7        1.0  0.21077  0.09627  0.11204  1.0000
  H   H8        1.0  0.14134  0.08604  0.27431  1.0000
  H   H9        1.0  0.17210  0.11117  0.03325  1.0000
  N   N1        1.0  0.11285  0.06522  0.34792  1.0000
  H   H10       1.0  0.06019  0.01199  0.31300  1.0000
  C   C9        1.0  0.06733  0.03538  0.34484  1.0000
  S   S6        1.0  0.02013  0.27948  0.04186  1.0000
  H   H11       1.0  0.41715  0.06325  0.09030  1.0000
  C   C10       1.0  0.44672  0.04206  0.07793  1.0000
  H   H12       1.0  0.45354  0.04576  0.03688  1.0000
  S   S7        1.0  0.15448  0.04919  0.51682  1.0000
  Fe  Fe3       1.0  0.07895  0.02295  0.55666  1.0000
  C   C11       1.0  0.02957  0.03431  0.38280  1.0000
  H   H13       1.0  0.24224  0.06651  0.45023  1.0000
  C   C12       1.0  0.21591  0.03714  0.43537  1.0000
  C   C13       1.0  0.16903  0.02163  0.46045  1.0000
  Fe  Fe4       1.0  0.01432  0.03865  0.65080  1.0000
  C   C14       1.0  0.03870  0.06406  0.42399  1.0000
  H   H14       1.0  0.05713  0.15197  0.68493  1.0000
  S   S8        1.0  0.02604  0.07486  0.57507  1.0000
  C   C15       1.0  0.08508  0.09458  0.42668  1.0000
  H   H15       1.0  0.15804  0.11837  0.39068  1.0000
  H   H16       1.0  0.09295  0.11699  0.45916  1.0000
  H   H17       1.0  0.26602  0.02570  0.37296  1.0000
  C   C16       1.0  0.22933  0.01425  0.39150  1.0000
  C   C17       1.0  0.12185  0.09498  0.38791  1.0000
  H   H18       1.0  0.00995  0.06335  0.45389  1.0000
  H   H19       1.0  0.13582  0.10406  0.94302  1.0000
  H   H20       1.0  0.14009  0.41930  0.91814  1.0000
  N   N2        1.0  0.11629  0.10967  0.86743  1.0000
  Fe  Fe5       1.0  0.04171  0.34223  0.98701  1.0000
  C   C18       1.0  0.12443  0.08473  0.90942  1.0000
  Fe  Fe6       1.0  0.06914  0.24086  0.99165  1.0000
  S   S9        1.0  0.09643  0.30572  0.94166  1.0000
  C   C19       1.0  0.02922  0.21671  0.78724  1.0000
  C   C20       1.0  0.01311  0.46191  0.94319  1.0000
  C   C21       1.0  0.03998  0.46806  0.98647  1.0000
  S   S10       1.0  0.11562  0.18248  0.00309  1.0000
  C   C22       1.0  0.04031  0.15959  0.72082  1.0000
  C   C23       1.0  0.08844  0.39762  0.83683  1.0000
  C   C24       1.0  0.10126  0.08518  0.82536  1.0000
  C   C25       1.0  0.09225  0.48590  0.83426  1.0000
  C   C26       1.0  0.11841  0.03396  0.90964  1.0000
  S   S11       1.0  0.04420  0.27506  0.81295  1.0000
  C   C27       1.0  0.09444  0.03446  0.82435  1.0000
  N   N3        1.0  0.10557  0.44613  0.85647  1.0000
  H   H21       1.0  0.08226  0.01554  0.79073  1.0000
  C   C28       1.0  0.12080  0.16267  0.86838  1.0000
  H   H22       1.0  0.08427  0.17252  0.88129  1.0000
  H   H23       1.0  0.14985  0.17903  0.89408  1.0000
  H   H24       1.0  0.12543  0.01435  0.94288  1.0000
  H   H25       1.0  0.13148  0.17930  0.83076  1.0000
  S   S12       1.0  0.06079  0.41885  0.01559  1.0000
  H   H26       1.0  0.11533  0.37274  0.84395  1.0000
  H   H27       1.0  0.09446  0.10482  0.79217  1.0000
  C   C29       1.0  0.13170  0.45101  0.89899  1.0000
  H   H28       1.0  0.05119  0.38169  0.85470  1.0000
  Fe  Fe7       1.0  0.03052  0.27733  0.89648  1.0000
  C   C30       1.0  0.10324  0.00870  0.86680  1.0000
  H   H29       1.0  0.07380  0.23567  0.71875  1.0000
  C   C31       1.0  0.04983  0.20688  0.74008  1.0000
  H   H30       1.0  0.06974  0.48188  0.80178  1.0000
  H   H31       1.0  0.08492  0.39870  0.79579  1.0000
  C   C32       1.0  0.01038  0.12208  0.74896  1.0000
  H   H32       1.0  0.21263  0.89269  0.15443  1.0000
  S   S13       1.0  0.09745  0.75949  0.08266  1.0000
  S   S14       1.0  0.25131  0.95783  0.07168  1.0000
  H   H33       1.0  0.03642  0.83772  0.11969  1.0000
  C   C33       1.0  0.40066  0.89359  0.11930  1.0000
  H   H34       1.0  0.38838  0.85594  0.13072  1.0000
  C   C34       1.0  0.13933  0.81514  0.07954  1.0000
  H   H35       1.0  0.15313  0.81423  0.15785  1.0000
  C   C35       1.0  0.16177  0.83398  0.12280  1.0000
  C   C36       1.0  0.20741  0.90351  0.07548  1.0000
  C   C37       1.0  0.19543  0.87835  0.12090  1.0000
  S   S15       1.0  0.31411  0.96443  0.20436  1.0000
  S   S16       1.0  0.21359  0.94283  0.32123  1.0000
  C   C38       1.0  0.44977  0.91668  0.12649  1.0000
  Fe  Fe8       1.0  0.26908  0.99188  0.14579  1.0000
  H   H36       1.0  0.47610  0.89729  0.14372  1.0000
  Fe  Fe9       1.0  0.25686  0.98844  0.25852  1.0000
  C   C39       1.0  0.38323  0.96819  0.08424  1.0000
  C   C40       1.0  0.46461  0.96545  0.11214  1.0000
  C   C41       1.0  0.36727  0.91929  0.09757  1.0000
  H   H37       1.0  0.35687  0.98815  0.06793  1.0000
  H   H38       1.0  0.50572  0.92428  0.25346  1.0000
  C   C42       1.0  0.15049  0.84084  0.03434  1.0000
  H   H39       1.0  0.32889  0.90178  0.09184  1.0000
  H   H40       1.0  0.43698  0.97172  0.24312  1.0000
  H   H41       1.0  0.50276  0.98315  0.11819  1.0000
  H   H42       1.0  0.07228  0.51967  0.04025  1.0000
  C   C43       1.0  0.47540  0.98738  0.23174  1.0000
  C   C44       1.0  0.18493  0.88469  0.03224  1.0000
  N   N4        1.0  0.43110  0.99081  0.09233  1.0000
  C   C45       1.0  0.14887  0.96048  0.39742  1.0000
  C   C46       1.0  0.18797  0.91495  0.50807  1.0000
  H   H43       1.0  0.11186  0.89244  0.63413  1.0000
  H   H44       1.0  0.08405  0.84521  0.56027  1.0000
  C   C47       1.0  0.20368  0.94326  0.54896  1.0000
  C   C48       1.0  0.13372  0.89890  0.59888  1.0000
  C   C49       1.0  0.19613  0.97528  0.37302  1.0000
  H   H45       1.0  0.11854  0.81329  0.47756  1.0000
  H   H46       1.0  0.09883  0.97206  0.45913  1.0000
  H   H47       1.0  0.23592  0.97238  0.54476  1.0000
  Fe  Fe10      1.0  0.01038  0.93809  0.60914  1.0000
  N   N5        1.0  0.14553  0.88016  0.51233  1.0000
  C   C50       1.0  0.11832  0.87209  0.55694  1.0000
  S   S17       1.0  0.02059  0.96355  0.52895  1.0000
  C   C51       1.0  0.17634  0.93509  0.59462  1.0000
  C   C52       1.0  0.12740  0.85278  0.46855  1.0000
  H   H48       1.0  0.15587  0.85809  0.43659  1.0000
  H   H49       1.0  0.20907  0.92224  0.47250  1.0000
  H   H50       1.0  0.18757  0.95742  0.62637  1.0000
  H   H51       1.0  0.09291  0.86510  0.45640  1.0000
  C   C53       1.0  0.13517  0.98390  0.44072  1.0000
  H   H52       1.0  0.12286  0.93076  0.38276  1.0000
  S   S18       1.0  0.07374  0.99325  0.63475  1.0000
  H   H53       1.0  0.14218  0.57298  0.91391  1.0000
  C   C54       1.0  0.03319  0.85110  0.80283  1.0000
  H   H54       1.0  0.19415  0.90403  0.99704  1.0000
  S   S19       1.0  0.07645  0.73080  0.93684  1.0000
  C   C55       1.0  0.03759  0.55497  0.98313  1.0000
  S   S20       1.0  0.04584  0.85071  0.86642  1.0000
  H   H55       1.0  0.04650  0.92907  0.79934  1.0000
  H   H56       1.0  0.09365  0.56346  0.83766  1.0000
  C   C56       1.0  0.03676  0.89612  0.77871  1.0000
  H   H57       1.0  0.13331  0.82650  0.00082  1.0000
  H   H58       1.0  0.02758  0.93396  0.71114  1.0000
  C   C57       1.0  0.05155  0.51458  0.00671  1.0000
  Fe  Fe11      1.0  0.05108  0.74543  0.01549  1.0000
  C   C58       1.0  0.02654  0.89893  0.72834  1.0000
  H   H59       1.0  0.04777  0.59088  0.99834  1.0000
  C   C59       1.0  0.01367  0.85668  0.70105  1.0000
  Fe  Fe12      1.0  0.02604  0.78287  0.91484  1.0000
  H   H60       1.0  0.09834  0.96925  0.86659  1.0000
  C   C60       1.0  0.10597  0.53220  0.85409  1.0000
  C   C61       1.0  0.13312  0.53755  0.89707  1.0000
  C   C62       1.0  0.01903  0.80849  0.77619  1.0000
  H   H61       1.0  0.01609  0.77351  0.79463  1.0000
  C   C63       1.0  0.01216  0.54904  0.93895  1.0000
  C   C64       1.0  0.14623  0.49678  0.91968  1.0000
  H   H62       1.0  0.16541  0.50022  0.95433  1.0000
  C   C65       1.0  0.00965  0.81133  0.72515  1.0000
  S   S21       1.0  0.81463  0.13341  0.22432  1.0000
  H   H63       1.0  0.90384  0.19841  0.18710  1.0000
  C   C66       1.0  0.65949  0.04863  0.35813  1.0000
  C   C67       1.0  0.89385  0.21029  0.10892  1.0000
  C   C68       1.0  0.87864  0.19119  0.15697  1.0000
  C   C69       1.0  0.83172  0.16112  0.16557  1.0000
  H   H64       1.0  0.93063  0.23217  0.10222  1.0000
  Fe  Fe13      1.0  0.78387  0.05411  0.21582  1.0000
  C   C70       1.0  0.72662  0.11132  0.33084  1.0000
  C   C71       1.0  0.90618  0.34989  0.05103  1.0000
  S   S22       1.0  0.74254  0.00558  0.27684  1.0000
  H   H65       1.0  0.61361  0.04252  0.18991  1.0000
  N   N6        1.0  0.93482  0.39041  0.06951  1.0000
  H   H66       1.0  0.62752  0.10832  0.25722  1.0000
  H   H67       1.0  0.83337  0.01543  0.33934  1.0000
  S   S23       1.0  0.73399  0.02326  0.15550  1.0000
  C   C72       1.0  0.79933  0.15175  0.12655  1.0000
  H   H68       1.0  0.92646  0.08914  0.16319  1.0000
  C   C73       1.0  0.86140  0.20061  0.06987  1.0000
  H   H69       1.0  0.76277  0.12927  0.13308  1.0000
  H   H70       1.0  0.78837  0.16493  0.04913  1.0000
  C   C74       1.0  0.53642  0.05426  0.19684  1.0000
  C   C75       1.0  0.64970  0.09892  0.28718  1.0000
  C   C76       1.0  0.93026  0.09500  0.12308  1.0000
  H   H71       1.0  0.54509  0.09057  0.18088  1.0000
  C   C77       1.0  0.57531  0.02722  0.20201  1.0000
  H   H72       1.0  0.95578  0.46753  0.06455  1.0000
  C   C78       1.0  0.96539  0.38601  0.11229  1.0000
  C   C79       1.0  0.81383  0.17207  0.07906  1.0000
  H   H73       1.0  0.90656  0.31428  0.06715  1.0000
  C   C80       1.0  0.97639  0.11617  0.10008  1.0000
  H   H74       1.0  0.85270  0.06627  0.11213  1.0000
  H   H75       1.0  0.59307  0.03954  0.31510  1.0000
  C   C81       1.0  0.88854  0.08235  0.09411  1.0000
  N   N7        1.0  0.89246  0.09118  0.04380  1.0000
  H   H76       1.0  0.71452  0.15315  0.26609  1.0000
  C   C82       1.0  0.69826  0.12434  0.29242  1.0000
  S   S24       1.0  0.84105  0.00654  0.20077  1.0000
  C   C83       1.0  0.63021  0.06059  0.31997  1.0000
  H   H77       1.0  0.94321  0.38979  0.14757  1.0000
  C   C84       1.0  0.98019  0.12430  0.04863  1.0000
  H   H78       1.0  0.97846  0.35046  0.11262  1.0000
  C   C85       1.0  0.93326  0.43533  0.04979  1.0000
  H   H79       1.0  0.76501  0.13025  0.33332  1.0000
  H   H80       1.0  0.81311  0.06928  0.03744  1.0000
  H   H81       1.0  0.99993  0.41431  0.11037  1.0000
  H   H82       1.0  0.00914  0.12647  0.12197  1.0000
  S   S25       1.0  0.91095  0.03680  0.49998  1.0000
  H   H83       1.0  0.86091  0.06111  0.41492  1.0000
  C   C86       1.0  0.86833  0.02462  0.40992  1.0000
  H   H84       1.0  0.74982  0.02438  0.39182  1.0000
  Fe  Fe14      1.0  0.96710  0.01382  0.55061  1.0000
  H   H85       1.0  0.77189  0.08661  0.40742  1.0000
  H   H86       1.0  0.71579  0.05401  0.43864  1.0000
  C   C87       1.0  0.73760  0.05917  0.40220  1.0000
  C   C88       1.0  0.89367  0.00355  0.44621  1.0000
  H   H87       1.0  0.99349  0.01052  0.38048  1.0000
  C   C89       1.0  0.85260  0.99877  0.36721  1.0000
  H   H88       1.0  0.64456  0.01796  0.38264  1.0000
  N   N8        1.0  0.70690  0.07418  0.36343  1.0000
  H   H89       1.0  0.96569  0.10344  0.81731  1.0000
  H   H90       1.0  0.85444  0.32113  0.99557  1.0000
  H   H91       1.0  0.94056  0.11848  0.98099  1.0000
  Fe  Fe15      1.0  0.95977  0.25462  0.98906  1.0000
  C   C90       1.0  0.87635  0.35358  0.01061  1.0000
  S   S26       1.0  0.97800  0.31949  0.93738  1.0000
  C   C91       1.0  0.90396  0.44038  0.00927  1.0000
  S   S27       1.0  0.00635  0.21072  0.94368  1.0000
  H   H92       1.0  0.85314  0.40244  0.95762  1.0000
  S   S28       1.0  0.00335  0.06105  0.73086  1.0000
  S   S29       1.0  0.87897  0.22260  0.00890  1.0000
  H   H93       1.0  0.85243  0.04487  0.99191  1.0000
  C   C92       1.0  0.87558  0.39913  0.98943  1.0000
  H   H94       1.0  0.00375  0.42632  0.92735  1.0000
  H   H95       1.0  0.84483  0.10830  0.98821  1.0000
  H   H96       1.0  0.97962  0.18694  0.84910  1.0000
  C   C93       1.0  0.99790  0.17939  0.81420  1.0000
  C   C94       1.0  0.98916  0.13221  0.79555  1.0000
  C   C95       1.0  0.84859  0.07778  0.01371  1.0000
  H   H97       1.0  0.90408  0.47603  0.99287  1.0000
  C   C96       1.0  0.93758  0.11155  0.02088  1.0000
  H   H98       1.0  0.90422  0.90178  0.21471  1.0000
  C   C97       1.0  0.99642  0.82814  0.12976  1.0000
  Fe  Fe16      1.0  0.79601  0.95519  0.25634  1.0000
  S   S30       1.0  0.74696  0.91550  0.19943  1.0000
  S   S31       1.0  0.83994  0.91750  0.30868  1.0000
  C   C98       1.0  0.81457  0.81493  0.06847  1.0000
  S   S32       1.0  0.82907  0.96173  0.07112  1.0000
  H   H99       1.0  0.78946  0.78386  0.08495  1.0000
  C   C99       1.0  0.92065  0.76819  0.13746  1.0000
  C   C100      1.0  0.51440  0.96056  0.23742  1.0000
  H   H100      1.0  0.77499  0.86714  0.10437  1.0000
  H   H101      1.0  0.89540  0.91934  0.15091  1.0000
  C   C101      1.0  0.97201  0.78036  0.12494  1.0000
  C   C102      1.0  0.89065  0.88849  0.17804  1.0000
  C   C103      1.0  0.80649  0.86205  0.07970  1.0000
  C   C104      1.0  0.83835  0.90230  0.05791  1.0000
  H   H102      1.0  0.85428  0.79425  0.16429  1.0000
  H   H103      1.0  0.90107  0.73143  0.13224  1.0000
  C   C105      1.0  0.89432  0.80407  0.15513  1.0000
  H   H104      1.0  0.84960  0.87459  0.18346  1.0000
  C   C106      1.0  0.85527  0.80784  0.03649  1.0000
  Fe  Fe17      1.0  0.69618  0.97063  0.21537  1.0000
  Fe  Fe18      1.0  0.78850  0.97131  0.14491  1.0000
  S   S33       1.0  0.61207  0.94522  0.23083  1.0000
  N   N9        1.0  0.91843  0.85098  0.15951  1.0000
  C   C107      1.0  0.96884  0.86326  0.14714  1.0000
  H   H105      1.0  0.99281  0.75288  0.11105  1.0000
  H   H106      1.0  0.98797  0.90040  0.15057  1.0000
  C   C108      1.0  0.56447  0.98033  0.22265  1.0000
  C   C109      1.0  0.86159  0.95138  0.36082  1.0000
  C   C110      1.0  0.88784  0.93060  0.39662  1.0000
  C   C111      1.0  0.90401  0.95667  0.43919  1.0000
  H   H107      1.0  0.92327  0.94004  0.46712  1.0000
  H   H108      1.0  0.89489  0.89394  0.39184  1.0000
  S   S34       1.0  0.95045  0.98207  0.62789  1.0000
  S   S35       1.0  0.00240  0.86062  0.63712  1.0000
  H   H109      1.0  0.99942  0.77840  0.70435  1.0000
  S   S36       1.0  0.95732  0.72544  0.91034  1.0000
  H   H110      1.0  0.89808  0.89307  0.70798  1.0000
  H   H111      1.0  0.93843  0.83579  0.89360  1.0000
  C   C112      1.0  0.88707  0.84815  0.01466  1.0000
  Fe  Fe19      1.0  0.94215  0.74128  0.99088  1.0000
  Fe  Fe20      1.0  0.00576  0.67412  0.93900  1.0000
  S   S37       1.0  0.98424  0.68516  0.01937  1.0000
  C   C113      1.0  0.92091  0.94712  0.76299  1.0000
  C   C114      1.0  0.90604  0.89977  0.74680  1.0000
  C   C115      1.0  0.91058  0.82824  0.86434  1.0000
  H   H112      1.0  0.89250  0.82423  0.76751  1.0000
  H   H113      1.0  0.91835  0.79504  0.84510  1.0000
  C   C116      1.0  0.93310  0.95520  0.81241  1.0000
  C   C117      1.0  0.92978  0.91555  0.84530  1.0000
  H   H114      1.0  0.87218  0.82085  0.88273  1.0000
  C   C118      1.0  0.90326  0.86099  0.78061  1.0000
  H   H115      1.0  0.93956  0.92191  0.88366  1.0000
  N   N10       1.0  0.91527  0.86920  0.82908  1.0000
  H   H116      1.0  0.94559  0.99198  0.82473  1.0000
  H   H117      1.0  0.92371  0.97755  0.73711  1.0000
  C   C119      1.0  0.87839  0.89525  0.02505  1.0000
  H   H118      1.0  0.91797  0.84307  0.98935  1.0000
  H   H119      1.0  0.90305  0.92627  0.00800  1.0000
  S   S38       1.0  0.99948  0.59924  0.90471  1.0000
  S   S39       1.0  0.00718  0.80205  0.99374  1.0000
  S   S40       1.0  0.86594  0.74839  0.02529  1.0000
  C   C120      1.0  0.99927  0.50227  0.91956  1.0000
  H   H120      1.0  0.97948  0.49748  0.88544  1.0000
