data_image0
_chemical_formula_structural       HCHFeH2FeHSFeHC3FeCSC2SHCHSH3SCHS2C3NH2C3FeHCHCHFeH2NHCSCH2SH2C3H3C4H2S2FeHFeHCSC3NHCHCH2CSCSC2FeSH5C3HCH2CH3C4SCNCSH2SCSNCHFeHC2FeSH2S2H2FeCHSCHC2HCHCHC3H5NC4H2CH2SFeC2SH2C3H4CHNCHC2SH4CHCFeS3HCH2C2H3FeCH2CNC6HFeHSHC3HCH2CH2FeH3CHNHC5H2SHS4C3H2FeC2SC3FeHSCH2SHSCHCH2CFeHCH2SHC2HFeCH2SH4FeC3SHCNCFeC2HCNHCS2HC2HCFeH3SCHC3HCFeCFeHSH4C3H2SHCNH2CHNC2H2SC2H2C2HCH2FeSHCS2CHC2H2C4H2FeCSHCSNFeSHCSHC3H7CSHSFeC6HCHSC4HCFeHC5SHC3H2C3SHSC2H5C2HNHC3SFeHSHCSNHC2H4
_chemical_formula_sum              "H192 C192 Fe32 S64 N16"
_cell_length_a       31.4616
_cell_length_b       35.7628
_cell_length_c       23.9344
_cell_angle_alpha    89.2515
_cell_angle_beta     88.2699
_cell_angle_gamma    89.4056

_space_group_name_H-M_alt    "P 1"
_space_group_IT_number       1

loop_
  _space_group_symop_operation_xyz
  'x, y, z'

loop_
  _atom_site_type_symbol
  _atom_site_label
  _atom_site_symmetry_multiplicity
  _atom_site_fract_x
  _atom_site_fract_y
  _atom_site_fract_z
  _atom_site_occupancy
  H   H1        1.0  0.45625  0.28889  0.20840  1.0000
  C   C1        1.0  0.49777  0.27584  0.33788  1.0000
  H   H2        1.0  0.28860  0.11308  0.11099  1.0000
  Fe  Fe1       1.0  0.42779  0.31608  0.04468  1.0000
  H   H3        1.0  0.46947  0.32316  0.29587  1.0000
  H   H4        1.0  0.31656  0.17134  0.26084  1.0000
  Fe  Fe2       1.0  0.03635  0.08999  0.14987  1.0000
  H   H5        1.0  0.02912  0.13916  0.25818  1.0000
  S   S1        1.0  0.10215  0.06554  0.14266  1.0000
  Fe  Fe3       1.0  0.12076  0.12079  0.10342  1.0000
  H   H6        1.0  0.10980  0.26347  0.08704  1.0000
  C   C2        1.0  0.47125  0.27474  0.24292  1.0000
  C   C3        1.0  0.36095  0.12905  0.05420  1.0000
  C   C4        1.0  0.47874  0.29406  0.29247  1.0000
  Fe  Fe4       1.0  0.45163  0.24257  0.10033  1.0000
  C   C5        1.0  0.29829  0.14047  0.18868  1.0000
  S   S2        1.0  0.38930  0.27332  0.09398  1.0000
  C   C6        1.0  0.50929  0.23811  0.33341  1.0000
  C   C7        1.0  0.21730  0.17110  0.08988  1.0000
  S   S3        1.0  0.05553  0.14659  0.11641  1.0000
  H   H7        1.0  0.02418  0.17075  0.35008  1.0000
  C   C8        1.0  0.36485  0.17282  0.19508  1.0000
  H   H8        1.0  0.37654  0.15244  0.03072  1.0000
  S   S4        1.0  0.47154  0.21132  0.17813  1.0000
  H   H9        1.0  0.30014  0.23224  0.09196  1.0000
  H   H10       1.0  0.38666  0.18965  0.21829  1.0000
  H   H11       1.0  0.50992  0.18937  0.28109  1.0000
  S   S5        1.0  0.49031  0.28729  0.05775  1.0000
  C   C9        1.0  0.48231  0.23688  0.23872  1.0000
  H   H12       1.0  0.26736  0.13268  0.20635  1.0000
  S   S6        1.0  0.17601  0.15435  0.13448  1.0000
  S   S7        1.0  0.50548  0.30115  0.39967  1.0000
  C   C10       1.0  0.31045  0.12955  0.13453  1.0000
  C   C11       1.0  0.27900  0.21146  0.07614  1.0000
  C   C12       1.0  0.37590  0.16148  0.14080  1.0000
  N   N1        1.0  0.34852  0.14065  0.11095  1.0000
  H   H13       1.0  0.40653  0.16958  0.12271  1.0000
  H   H14       1.0  0.23994  0.20883  0.15168  1.0000
  C   C13       1.0  0.32567  0.16239  0.21898  1.0000
  C   C14       1.0  0.24481  0.19825  0.10979  1.0000
  C   C15       1.0  0.50130  0.21866  0.28409  1.0000
  Fe  Fe5       1.0  0.08434  0.04927  0.05625  1.0000
  H   H15       1.0  0.15798  0.23937  0.10746  1.0000
  C   C16       1.0  0.12793  0.23673  0.08458  1.0000
  H   H16       1.0  0.38332  0.10489  0.05592  1.0000
  C   C17       1.0  0.22378  0.15758  0.03575  1.0000
  H   H17       1.0  0.10956  0.21440  0.10683  1.0000
  Fe  Fe6       1.0  0.04379  0.12414  0.03084  1.0000
  H   H18       1.0  0.03330  0.01127  0.47865  1.0000
  H   H19       1.0  0.19951  0.24800  0.02368  1.0000
  N   N2        1.0  0.13623  0.22680  0.02599  1.0000
  H   H20       1.0  0.33288  0.12138  0.02982  1.0000
  C   C18       1.0  0.48023  0.21858  0.77035  1.0000
  S   S8        1.0  0.11007  0.10195  0.01571  1.0000
  C   C19       1.0  0.11175  0.20171  0.94017  1.0000
  H   H21       1.0  0.26259  0.16057  0.95995  1.0000
  H   H22       1.0  0.08668  0.18902  0.91696  1.0000
  S   S9        1.0  0.41683  0.28984  0.96180  1.0000
  H   H23       1.0  0.45099  0.20591  0.75778  1.0000
  H   H24       1.0  0.44774  0.31721  0.84943  1.0000
  C   C20       1.0  0.05426  0.11009  0.82157  1.0000
  C   C21       1.0  0.48536  0.22779  0.82680  1.0000
  C   C22       1.0  0.28550  0.19794  0.02203  1.0000
  H   H25       1.0  0.20280  0.13663  0.02005  1.0000
  H   H26       1.0  0.42946  0.29828  0.75426  1.0000
  H   H27       1.0  0.46017  0.22222  0.85749  1.0000
  C   C23       1.0  0.04949  0.12101  0.87754  1.0000
  C   C24       1.0  0.18275  0.22609  0.94441  1.0000
  C   C25       1.0  0.15111  0.20915  0.91422  1.0000
  C   C26       1.0  0.48818  0.31813  0.71665  1.0000
  H   H28       1.0  0.08235  0.09454  0.80809  1.0000
  H   H29       1.0  0.07395  0.11401  0.90665  1.0000
  S   S10       1.0  0.32746  0.21413  0.97805  1.0000
  S   S11       1.0  0.44446  0.21018  0.02121  1.0000
  Fe  Fe7       1.0  0.47713  0.25816  0.97748  1.0000
  H   H30       1.0  0.21369  0.23177  0.92493  1.0000
  Fe  Fe8       1.0  0.38438  0.24401  0.01193  1.0000
  H   H31       1.0  0.15700  0.20183  0.87077  1.0000
  C   C27       1.0  0.03929  0.00983  0.78486  1.0000
  S   S12       1.0  0.02877  0.10106  0.71483  1.0000
  C   C28       1.0  0.10478  0.21077  0.99642  1.0000
  C   C29       1.0  0.25771  0.17109  0.00188  1.0000
  C   C30       1.0  0.17456  0.23513  0.00045  1.0000
  N   N3        1.0  0.50844  0.33876  0.82420  1.0000
  H   H32       1.0  0.06567  0.02140  0.92010  1.0000
  C   C31       1.0  0.46995  0.32283  0.81496  1.0000
  H   H33       1.0  0.07402  0.20479  0.01618  1.0000
  C   C32       1.0  0.45931  0.31217  0.76114  1.0000
  H   H34       1.0  0.48081  0.30888  0.67507  1.0000
  H   H35       1.0  0.49736  0.33740  0.91304  1.0000
  C   C33       1.0  0.02255  0.11833  0.78324  1.0000
  S   S13       1.0  0.50506  0.21504  0.65935  1.0000
  C   C34       1.0  0.51249  0.22620  0.73008  1.0000
  S   S14       1.0  0.51798  0.29806  0.55615  1.0000
  C   C35       1.0  0.04679  0.02213  0.88288  1.0000
  C   C36       1.0  0.47707  0.39261  0.46252  1.0000
  Fe  Fe9       1.0  0.47768  0.57610  0.46507  1.0000
  S   S15       1.0  0.51105  0.54858  0.39076  1.0000
  H   H36       1.0  0.49985  0.49589  0.04361  1.0000
  H   H37       1.0  0.25188  0.65146  0.40922  1.0000
  H   H38       1.0  0.46022  0.48650  0.46921  1.0000
  H   H39       1.0  0.50038  0.51146  0.18555  1.0000
  H   H40       1.0  0.43620  0.47219  0.20073  1.0000
  C   C37       1.0  0.47710  0.45994  0.46734  1.0000
  C   C38       1.0  0.50121  0.46612  0.03670  1.0000
  C   C39       1.0  0.50258  0.48132  0.18093  1.0000
  H   H41       1.0  0.22553  0.62013  0.49580  1.0000
  C   C40       1.0  0.21903  0.65547  0.42339  1.0000
  H   H42       1.0  0.44141  0.40368  0.18758  1.0000
  H   H43       1.0  0.43452  0.45803  0.05675  1.0000
  C   C41       1.0  0.46655  0.45929  0.18939  1.0000
  H   H44       1.0  0.46026  0.36632  0.46028  1.0000
  H   H45       1.0  0.10325  0.67023  0.47682  1.0000
  H   H46       1.0  0.42029  0.42695  0.46587  1.0000
  C   C42       1.0  0.20394  0.63784  0.47251  1.0000
  C   C43       1.0  0.45477  0.42651  0.46520  1.0000
  C   C44       1.0  0.46975  0.42057  0.18210  1.0000
  C   C45       1.0  0.46423  0.44461  0.04426  1.0000
  S   S16       1.0  0.46756  0.63499  0.49478  1.0000
  C   C46       1.0  0.13597  0.66617  0.46236  1.0000
  N   N4        1.0  0.16311  0.64387  0.49191  1.0000
  C   C47       1.0  0.51372  0.61237  0.32428  1.0000
  S   S17       1.0  0.41073  0.55861  0.48627  1.0000
  H   H47       1.0  0.48031  0.35210  0.14604  1.0000
  H   H48       1.0  0.49988  0.62704  0.35974  1.0000
  S   S18       1.0  0.42085  0.37862  0.05549  1.0000
  C   C48       1.0  0.46597  0.40567  0.03798  1.0000
  S   S19       1.0  0.34981  0.65824  0.49696  1.0000
  N   N5        1.0  0.50779  0.40428  0.16665  1.0000
  C   C49       1.0  0.51070  0.36355  0.16074  1.0000
  H   H49       1.0  0.51713  0.66163  0.27139  1.0000
  Fe  Fe10      1.0  0.40146  0.61642  0.52148  1.0000
  H   H50       1.0  0.45978  0.61726  0.70685  1.0000
  C   C50       1.0  0.28861  0.65030  0.58220  1.0000
  C   C51       1.0  0.47150  0.45618  0.61108  1.0000
  Fe  Fe11      1.0  0.48561  0.61397  0.58004  1.0000
  S   S20       1.0  0.41937  0.59871  0.60830  1.0000
  H   H51       1.0  0.45458  0.50284  0.81854  1.0000
  H   H52       1.0  0.49898  0.53569  0.91858  1.0000
  S   S21       1.0  0.42630  0.48598  0.61075  1.0000
  S   S22       1.0  0.50306  0.55755  0.54728  1.0000
  H   H53       1.0  0.49764  0.36384  0.60427  1.0000
  H   H54       1.0  0.43484  0.40581  0.60789  1.0000
  Fe  Fe12      1.0  0.43612  0.54289  0.57034  1.0000
  C   C52       1.0  0.25025  0.66053  0.61010  1.0000
  H   H55       1.0  0.50605  0.35886  0.01539  1.0000
  S   S23       1.0  0.50679  0.61586  0.89880  1.0000
  C   C53       1.0  0.48628  0.62207  0.73317  1.0000
  H   H56       1.0  0.45096  0.60808  0.80894  1.0000
  C   C54       1.0  0.46645  0.41737  0.60883  1.0000
  C   C55       1.0  0.48132  0.61691  0.79119  1.0000
  H   H57       1.0  0.30771  0.62736  0.59793  1.0000
  C   C56       1.0  0.50222  0.39346  0.60621  1.0000
  H   H58       1.0  0.46207  0.51896  0.71763  1.0000
  C   C57       1.0  0.48847  0.52296  0.74515  1.0000
  H   H59       1.0  0.51697  0.50003  0.61795  1.0000
  C   C58       1.0  0.48453  0.51376  0.80214  1.0000
  C   C59       1.0  0.51255  0.47058  0.61358  1.0000
  C   C60       1.0  0.51247  0.51077  0.89683  1.0000
  H   H60       1.0  0.12492  0.64317  0.56693  1.0000
  H   H61       1.0  0.24000  0.64532  0.64743  1.0000
  H   H62       1.0  0.49099  0.48671  0.90486  1.0000
  H   H63       1.0  0.17408  0.61877  0.57178  1.0000
  H   H64       1.0  0.13166  0.59852  0.53271  1.0000
  N   N6        1.0  0.51773  0.51901  0.83680  1.0000
  C   C61       1.0  0.14764  0.62493  0.54315  1.0000
  C   C62       1.0  0.30205  0.66979  0.53396  1.0000
  C   C63       1.0  0.51540  0.62273  0.82634  1.0000
  C   C64       1.0  0.50440  0.38863  0.02142  1.0000
  H   H65       1.0  0.07802  0.95219  0.15270  1.0000
  H   H66       1.0  0.04326  0.79614  0.39567  1.0000
  C   C65       1.0  0.03027  0.78204  0.36042  1.0000
  H   H67       1.0  0.06683  0.88648  0.43613  1.0000
  H   H68       1.0  0.05959  0.86931  0.18648  1.0000
  S   S24       1.0  0.11915  0.77257  0.51436  1.0000
  Fe  Fe13      1.0  0.05661  0.74422  0.50256  1.0000
  C   C66       1.0  0.19184  0.67897  0.39372  1.0000
  C   C67       1.0  0.04396  0.94821  0.15074  1.0000
  S   S25       1.0  0.03909  0.71648  0.42200  1.0000
  H   H69       1.0  0.08792  0.88779  0.12502  1.0000
  H   H70       1.0  0.07096  0.95452  0.45160  1.0000
  C   C68       1.0  0.14996  0.68423  0.41309  1.0000
  C   C69       1.0  0.03851  0.90392  0.43296  1.0000
  C   C70       1.0  0.04058  0.94244  0.44208  1.0000
  H   H71       1.0  0.12830  0.70222  0.39024  1.0000
  H   H72       1.0  0.28730  0.71499  0.47701  1.0000
  H   H73       1.0  0.20318  0.69310  0.35583  1.0000
  H   H74       1.0  0.02475  0.83225  0.31002  1.0000
  C   C71       1.0  0.05614  0.88060  0.14335  1.0000
  H   H75       1.0  0.04320  0.85804  0.11747  1.0000
  N   N7        1.0  0.02762  0.91326  0.14434  1.0000
  C   C72       1.0  0.02465  0.74330  0.36276  1.0000
  H   H76       1.0  0.03016  0.00724  0.15812  1.0000
  C   C73       1.0  0.01982  0.80238  0.31188  1.0000
  C   C74       1.0  0.27697  0.69962  0.51415  1.0000
  S   S26       1.0  0.09654  0.99040  0.02574  1.0000
  H   H77       1.0  0.36360  0.71615  0.58104  1.0000
  H   H78       1.0  0.47439  0.70082  0.67694  1.0000
  H   H79       1.0  0.09546  0.99630  0.83086  1.0000
  H   H80       1.0  0.05234  0.99998  0.74517  1.0000
  C   C75       1.0  0.35216  0.70284  0.66789  1.0000
  H   H81       1.0  0.42983  0.68798  0.76172  1.0000
  C   C76       1.0  0.01910  0.90238  0.00207  1.0000
  Fe  Fe14      1.0  0.12248  0.73748  0.59292  1.0000
  S   S27       1.0  0.08948  0.78083  0.64690  1.0000
  S   S28       1.0  0.06185  0.70673  0.57834  1.0000
  S   S29       1.0  0.08644  0.87616  0.56842  1.0000
  H   H82       1.0  0.05919  0.81098  0.76379  1.0000
  C   C77       1.0  0.06353  0.00805  0.83272  1.0000
  H   H83       1.0  0.05267  0.70495  0.85176  1.0000
  H   H84       1.0  0.31778  0.70372  0.66483  1.0000
  C   C78       1.0  0.03059  0.82061  0.84504  1.0000
  C   C79       1.0  0.44002  0.70123  0.67404  1.0000
  H   H85       1.0  0.07644  0.95439  0.59133  1.0000
  H   H86       1.0  0.45557  0.74667  0.57190  1.0000
  H   H87       1.0  0.04404  0.71607  0.74982  1.0000
  Fe  Fe15      1.0  0.07983  0.81308  0.56700  1.0000
  C   C80       1.0  0.37823  0.70975  0.62057  1.0000
  H   H88       1.0  0.05290  0.80259  0.86664  1.0000
  H   H89       1.0  0.21920  0.73239  0.52577  1.0000
  C   C81       1.0  0.02023  0.72636  0.77955  1.0000
  N   N8        1.0  0.42156  0.70824  0.62390  1.0000
  C   C82       1.0  0.37072  0.69473  0.71893  1.0000
  C   C83       1.0  0.44834  0.71638  0.57416  1.0000
  C   C84       1.0  0.23838  0.70957  0.54167  1.0000
  C   C85       1.0  0.41493  0.69411  0.72222  1.0000
  C   C86       1.0  0.04061  0.90508  0.57388  1.0000
  C   C87       1.0  0.04517  0.94333  0.58438  1.0000
  H   H90       1.0  0.35087  0.68907  0.75590  1.0000
  Fe  Fe16      1.0  0.02899  0.75264  0.62619  1.0000
  H   H91       1.0  0.43221  0.70834  0.53537  1.0000
  S   S30       1.0  0.17634  0.70091  0.62553  1.0000
  H   H92       1.0  0.47878  0.70025  0.57522  1.0000
  C   C88       1.0  0.22482  0.69000  0.58976  1.0000
  C   C89       1.0  0.02501  0.72002  0.83724  1.0000
  C   C90       1.0  0.05143  0.96338  0.01232  1.0000
  H   H93       1.0  0.02244  0.87243  0.00036  1.0000
  C   C91       1.0  0.05518  0.92436  0.00996  1.0000
  H   H94       1.0  0.04291  0.85345  0.68415  1.0000
  H   H95       1.0  0.08591  0.91108  0.01505  1.0000
  C   C92       1.0  0.03395  0.82546  0.78692  1.0000
  H   H96       1.0  0.01350  0.01943  0.40924  1.0000
  H   H97       1.0  0.95250  0.04963  0.32541  1.0000
  Fe  Fe17      1.0  0.54316  0.27888  0.47264  1.0000
  H   H98       1.0  0.86299  0.17525  0.36563  1.0000
  H   H99       1.0  0.91400  0.19054  0.38878  1.0000
  H   H100      1.0  0.90910  0.18543  0.50619  1.0000
  C   C93       1.0  0.98616  0.12775  0.39016  1.0000
  H   H101      1.0  0.88985  0.14920  0.41873  1.0000
  N   N9        1.0  0.86285  0.20069  0.44656  1.0000
  H   H102      1.0  0.81270  0.22060  0.39539  1.0000
  C   C94       1.0  0.88320  0.17792  0.40259  1.0000
  C   C95       1.0  0.96854  0.07588  0.33094  1.0000
  C   C96       1.0  0.96621  0.09344  0.38319  1.0000
  C   C97       1.0  0.88054  0.20154  0.49803  1.0000
  C   C98       1.0  0.82702  0.22135  0.43600  1.0000
  H   H103      1.0  0.94842  0.08077  0.41771  1.0000
  H   H104      1.0  0.97753  0.01591  0.46949  1.0000
  S   S31       1.0  0.98173  0.15158  0.45413  1.0000
  H   H105      1.0  0.75053  0.16283  0.47328  1.0000
  S   S32       1.0  0.60728  0.30445  0.48247  1.0000
  S   S33       1.0  0.68542  0.21776  0.49310  1.0000
  S   S34       1.0  0.56284  0.22264  0.50733  1.0000
  S   S35       1.0  0.99255  0.06972  0.22052  1.0000
  C   C99       1.0  0.80769  0.24321  0.47788  1.0000
  C   C100      1.0  0.99124  0.09226  0.28565  1.0000
  C   C101      1.0  0.01161  0.12633  0.29285  1.0000
  H   H106      1.0  0.77839  0.25850  0.47002  1.0000
  H   H107      1.0  0.52387  0.22381  0.36815  1.0000
  Fe  Fe18      1.0  0.62599  0.24957  0.52248  1.0000
  C   C102      1.0  0.00874  0.14417  0.34489  1.0000
  C   C103      1.0  0.75245  0.17136  0.51634  1.0000
  S   S36       1.0  0.01763  0.07062  0.06561  1.0000
  C   C104      1.0  0.82515  0.24371  0.53077  1.0000
  C   C105      1.0  0.98222  0.15049  0.85663  1.0000
  C   C106      1.0  0.75756  0.19311  0.62733  1.0000
  Fe  Fe19      1.0  0.97630  0.10207  0.65226  1.0000
  H   H108      1.0  0.57796  0.16753  0.70876  1.0000
  S   S37       1.0  0.91563  0.07045  0.66609  1.0000
  C   C107      1.0  0.93984  0.05679  0.83943  1.0000
  H   H109      1.0  0.87515  0.22223  0.58237  1.0000
  H   H110      1.0  0.99348  0.04964  0.92332  1.0000
  S   S38       1.0  0.94490  0.15114  0.61047  1.0000
  H   H111      1.0  0.57105  0.17001  0.60594  1.0000
  S   S39       1.0  0.60859  0.26872  0.60940  1.0000
  C   C108      1.0  0.78668  0.16652  0.60579  1.0000
  H   H112      1.0  0.70401  0.22957  0.61036  1.0000
  C   C109      1.0  0.64169  0.14405  0.70419  1.0000
  H   H113      1.0  0.70598  0.09425  0.72522  1.0000
  H   H114      1.0  0.58525  0.26295  0.81590  1.0000
  C   C110      1.0  0.52327  0.24384  0.84334  1.0000
  Fe  Fe20      1.0  0.93121  0.04563  0.58215  1.0000
  H   H115      1.0  0.93699  0.07829  0.87257  1.0000
  C   C111      1.0  0.98648  0.13870  0.80079  1.0000
  H   H116      1.0  0.95444  0.16650  0.87000  1.0000
  H   H117      1.0  0.96203  0.14547  0.77136  1.0000
  S   S40       1.0  0.82455  0.14637  0.65041  1.0000
  H   H118      1.0  0.57561  0.24776  0.71663  1.0000
  C   C112      1.0  0.63373  0.14706  0.58917  1.0000
  C   C113      1.0  0.67065  0.13279  0.61310  1.0000
  H   H119      1.0  0.93286  0.07136  0.79933  1.0000
  Fe  Fe21      1.0  0.88487  0.11748  0.61749  1.0000
  C   C114      1.0  0.72606  0.20890  0.59350  1.0000
  H   H120      1.0  0.75953  0.20173  0.67035  1.0000
  H   H121      1.0  0.98032  0.02789  0.75021  1.0000
  S   S41       1.0  0.99383  0.07411  0.57106  1.0000
  H   H122      1.0  0.64467  0.14344  0.74924  1.0000
  H   H123      1.0  0.69667  0.12349  0.58577  1.0000
  H   H124      1.0  0.80962  0.25948  0.56417  1.0000
  H   H125      1.0  0.72963  0.14003  0.71667  1.0000
  Fe  Fe22      1.0  0.58274  0.32065  0.56782  1.0000
  C   C115      1.0  0.60010  0.15929  0.62381  1.0000
  C   C116      1.0  0.55579  0.25069  0.80328  1.0000
  C   C117      1.0  0.55032  0.24221  0.74686  1.0000
  S   S42       1.0  0.53120  0.25670  0.91308  1.0000
  H   H126      1.0  0.73642  0.10605  0.66289  1.0000
  C   C118      1.0  0.71338  0.11719  0.69488  1.0000
  N   N10       1.0  0.67429  0.13151  0.66996  1.0000
  C   C119      1.0  0.72348  0.19810  0.53780  1.0000
  Fe  Fe23      1.0  0.54449  0.24520  0.59245  1.0000
  C   C120      1.0  0.60401  0.15785  0.68167  1.0000
  C   C121      1.0  0.78400  0.15565  0.55014  1.0000
  H   H127      1.0  0.91578  0.03479  0.84790  1.0000
  C   C122      1.0  0.01344  0.14125  0.89534  1.0000
  N   N11       1.0  0.98258  0.04004  0.83715  1.0000
  H   H128      1.0  0.63147  0.14911  0.54401  1.0000
  C   C123      1.0  0.52705  0.33492  0.72628  1.0000
  S   S43       1.0  0.00732  0.15594  0.96527  1.0000
  S   S44       1.0  0.89468  0.08965  0.53435  1.0000
  H   H129      1.0  0.00859  0.01004  0.00396  1.0000
  C   C124      1.0  0.86183  0.22277  0.54103  1.0000
  C   C125      1.0  0.00589  0.03795  0.88446  1.0000
  H   H130      1.0  0.55173  0.33834  0.89064  1.0000
  C   C126      1.0  0.99846  0.02568  0.78799  1.0000
  Fe  Fe24      1.0  0.95678  0.12004  0.53030  1.0000
  H   H131      1.0  0.80601  0.13497  0.53325  1.0000
  H   H132      1.0  0.54992  0.33925  0.69204  1.0000
  H   H133      1.0  0.76285  0.61928  0.13242  1.0000
  S   S45       1.0  0.62928  0.56901  0.08152  1.0000
  C   C127      1.0  0.54130  0.46445  0.16554  1.0000
  H   H134      1.0  0.64704  0.63684  0.15274  1.0000
  C   C128      1.0  0.52213  0.57399  0.32837  1.0000
  C   C129      1.0  0.52151  0.45896  0.46771  1.0000
  C   C130      1.0  0.54017  0.55525  0.28202  1.0000
  H   H135      1.0  0.56383  0.56021  0.19641  1.0000
  C   C131      1.0  0.54968  0.57474  0.23179  1.0000
  Fe  Fe25      1.0  0.58883  0.53626  0.02421  1.0000
  C   C132      1.0  0.66801  0.65997  0.16043  1.0000
  Fe  Fe26      1.0  0.57387  0.60887  0.08696  1.0000
  H   H136      1.0  0.54697  0.52560  0.28515  1.0000
  S   S46       1.0  0.53166  0.57314  0.03654  1.0000
  H   H137      1.0  0.51810  0.35015  0.20151  1.0000
  H   H138      1.0  0.72694  0.59980  0.18561  1.0000
  H   H139      1.0  0.60046  0.44324  0.50171  1.0000
  H   H140      1.0  0.53568  0.35561  0.12912  1.0000
  C   C133      1.0  0.58964  0.42541  0.46729  1.0000
  C   C134      1.0  0.52355  0.63190  0.27422  1.0000
  C   C135      1.0  0.54142  0.61317  0.22785  1.0000
  H   H141      1.0  0.60268  0.39688  0.47534  1.0000
  H   H142      1.0  0.57347  0.41289  0.14578  1.0000
  S   S47       1.0  0.55398  0.63884  0.16619  1.0000
  H   H143      1.0  0.60296  0.43606  0.42674  1.0000
  C   C136      1.0  0.52150  0.39266  0.46304  1.0000
  N   N12       1.0  0.54308  0.42555  0.46644  1.0000
  H   H144      1.0  0.71169  0.60418  0.11346  1.0000
  H   H145      1.0  0.53855  0.48515  0.46944  1.0000
  C   C137      1.0  0.72911  0.61768  0.14740  1.0000
  H   H146      1.0  0.56929  0.48140  0.15730  1.0000
  N   N13       1.0  0.71119  0.65487  0.15903  1.0000
  C   C138      1.0  0.54011  0.44862  0.02337  1.0000
  C   C139      1.0  0.54340  0.42563  0.15886  1.0000
  H   H147      1.0  0.53847  0.36613  0.46119  1.0000
  H   H148      1.0  0.58924  0.64993  0.72720  1.0000
  S   S48       1.0  0.61298  0.56589  0.94680  1.0000
  C   C140      1.0  0.54140  0.40996  0.01467  1.0000
  C   C141      1.0  0.55916  0.64039  0.74496  1.0000
  H   H149      1.0  0.80612  0.62984  0.01010  1.0000
  H   H150      1.0  0.52933  0.54728  0.68069  1.0000
  C   C142      1.0  0.55454  0.63425  0.80313  1.0000
  C   C143      1.0  0.55993  0.54367  0.75971  1.0000
  H   H151      1.0  0.58089  0.63915  0.83005  1.0000
  C   C144      1.0  0.54825  0.44673  0.61144  1.0000
  H   H152      1.0  0.58906  0.55655  0.74394  1.0000
  H   H153      1.0  0.54341  0.50344  0.91575  1.0000
  Fe  Fe27      1.0  0.55794  0.60509  0.96180  1.0000
  S   S49       1.0  0.53118  0.64232  0.63701  1.0000
  H   H154      1.0  0.57980  0.45836  0.61292  1.0000
  C   C145      1.0  0.54333  0.40809  0.60644  1.0000
  S   S50       1.0  0.71916  0.61294  0.99025  1.0000
  S   S51       1.0  0.58927  0.37937  0.60007  1.0000
  C   C146      1.0  0.52509  0.63406  0.70975  1.0000
  H   H155      1.0  0.56724  0.35776  0.78785  1.0000
  C   C147      1.0  0.93065  0.66169  0.83453  1.0000
  C   C148      1.0  0.51963  0.34948  0.88081  1.0000
  H   H156      1.0  0.94818  0.65175  0.91989  1.0000
  H   H157      1.0  0.95889  0.64817  0.81675  1.0000
  C   C149      1.0  0.92462  0.66368  0.89241  1.0000
  C   C150      1.0  0.74310  0.65411  0.01328  1.0000
  C   C151      1.0  0.52637  0.53828  0.72409  1.0000
  C   C152      1.0  0.55498  0.53398  0.81630  1.0000
  H   H158      1.0  0.58081  0.53932  0.84387  1.0000
  H   H159      1.0  0.51914  0.38037  0.88474  1.0000
  Fe  Fe28      1.0  0.64862  0.60242  0.00492  1.0000
  C   C153      1.0  0.53669  0.34522  0.78062  1.0000
  S   S52       1.0  0.59541  0.64462  0.01347  1.0000
  H   H160      1.0  0.57137  0.39628  0.00405  1.0000
  C   C154      1.0  0.78736  0.65461  0.01960  1.0000
  S   S53       1.0  0.58829  0.47321  0.02177  1.0000
  N   N14       1.0  0.00460  0.96428  0.44109  1.0000
  Fe  Fe29      1.0  0.95891  0.79037  0.12817  1.0000
  S   S54       1.0  0.90015  0.82380  0.10910  1.0000
  H   H161      1.0  0.77176  0.68013  0.16870  1.0000
  C   C155      1.0  0.65014  0.69519  0.17128  1.0000
  S   S55       1.0  0.80610  0.75796  0.08254  1.0000
  H   H162      1.0  0.93239  0.89813  0.41275  1.0000
  C   C156      1.0  0.71898  0.68607  0.02599  1.0000
  C   C157      1.0  0.73900  0.71825  0.04507  1.0000
  C   C158      1.0  0.01710  0.97956  0.15343  1.0000
  H   H163      1.0  0.98475  0.73137  0.23269  1.0000
  H   H164      1.0  0.92299  0.93540  0.13924  1.0000
  H   H165      1.0  0.93760  0.96606  0.42992  1.0000
  H   H166      1.0  0.66330  0.75281  0.18881  1.0000
  H   H167      1.0  0.74188  0.74289  0.18720  1.0000
  H   H168      1.0  0.95241  0.99941  0.15105  1.0000
  H   H169      1.0  0.72010  0.74287  0.05504  1.0000
  C   C159      1.0  0.00332  0.78427  0.26556  1.0000
  S   S56       1.0  0.93296  0.73644  0.09490  1.0000
  H   H170      1.0  0.99728  0.85792  0.41588  1.0000
  S   S57       1.0  0.99190  0.80549  0.04657  1.0000
  Fe  Fe30      1.0  0.87618  0.77136  0.07041  1.0000
  C   C160      1.0  0.95692  0.93930  0.14310  1.0000
  C   C161      1.0  0.99732  0.74560  0.26812  1.0000
  C   C162      1.0  0.98466  0.90846  0.14134  1.0000
  C   C163      1.0  0.72071  0.71961  0.18089  1.0000
  C   C164      1.0  0.73748  0.68395  0.17012  1.0000
  C   C165      1.0  0.99944  0.88787  0.42205  1.0000
  H   H171      1.0  0.97168  0.88069  0.13695  1.0000
  C   C166      1.0  0.78309  0.71850  0.05262  1.0000
  H   H172      1.0  0.00379  0.69523  0.31798  1.0000
  S   S58       1.0  0.99185  0.81110  0.20512  1.0000
  C   C167      1.0  0.67673  0.72522  0.18122  1.0000
  C   C168      1.0  0.96302  0.91042  0.42038  1.0000
  C   C169      1.0  0.96620  0.94882  0.42997  1.0000
  C   C170      1.0  0.00818  0.72519  0.31647  1.0000
  H   H173      1.0  0.84107  0.68625  0.04679  1.0000
  C   C171      1.0  0.00744  0.00469  0.44981  1.0000
  Fe  Fe31      1.0  0.93200  0.83567  0.02616  1.0000
  H   H174      1.0  0.61582  0.69905  0.17163  1.0000
  C   C172      1.0  0.97335  0.97508  0.14938  1.0000
  C   C173      1.0  0.80727  0.68658  0.03979  1.0000
  C   C174      1.0  0.90100  0.67843  0.79969  1.0000
  C   C175      1.0  1.00000  0.89113  0.56526  1.0000
  C   C176      1.0  0.96454  0.91534  0.56518  1.0000
  S   S59       1.0  0.90208  0.78707  0.98514  1.0000
  H   H175      1.0  0.01368  0.99694  0.59237  1.0000
  C   C177      1.0  0.00901  0.85180  0.69853  1.0000
  C   C178      1.0  0.98375  0.74455  0.76050  1.0000
  C   C179      1.0  0.99728  0.83799  0.87487  1.0000
  H   H176      1.0  0.99380  0.83399  0.91980  1.0000
  H   H177      1.0  0.83141  0.73363  0.94383  1.0000
  C   C180      1.0  0.86577  0.69724  0.82342  1.0000
  C   C181      1.0  0.96771  0.85975  0.84642  1.0000
  C   C182      1.0  0.97204  0.86404  0.78832  1.0000
  S   S60       1.0  0.97387  0.74952  0.68885  1.0000
  H   H178      1.0  0.84304  0.71034  0.79598  1.0000
  S   S61       1.0  0.01746  0.78705  0.54885  1.0000
  C   C183      1.0  0.95302  0.75756  0.79927  1.0000
  C   C184      1.0  0.95820  0.75186  0.85675  1.0000
  H   H179      1.0  0.99318  0.87790  0.68385  1.0000
  H   H180      1.0  0.94858  0.88060  0.76643  1.0000
  H   H181      1.0  0.92472  0.77161  0.78473  1.0000
  H   H182      1.0  0.93372  0.76117  0.88570  1.0000
  H   H183      1.0  0.94142  0.87294  0.86937  1.0000
  C   C185      1.0  0.96927  0.95373  0.57391  1.0000
  C   C186      1.0  0.97592  0.95840  0.99547  1.0000
  H   H184      1.0  0.93346  0.90440  0.55682  1.0000
  N   N15       1.0  0.00526  0.84747  0.75948  1.0000
  H   H185      1.0  0.81129  0.74133  0.87572  1.0000
  C   C187      1.0  0.00961  0.96753  0.58482  1.0000
  C   C188      1.0  0.99389  0.73261  0.87608  1.0000
  C   C189      1.0  0.97925  0.91940  0.99551  1.0000
  S   S62       1.0  0.93310  0.89305  0.98658  1.0000
  Fe  Fe32      1.0  0.96041  0.75572  0.01091  1.0000
  H   H186      1.0  0.94533  0.97179  0.98963  1.0000
  S   S63       1.0  0.99886  0.72177  0.94785  1.0000
  H   H187      1.0  0.99585  0.86194  0.55683  1.0000
  C   C190      1.0  0.88927  0.68300  0.91471  1.0000
  S   S64       1.0  0.92473  0.98369  0.56668  1.0000
  N   N16       1.0  0.86064  0.69980  0.88027  1.0000
  H   H188      1.0  0.99422  0.82764  0.67813  1.0000
  C   C191      1.0  0.01177  0.98021  0.00428  1.0000
  C   C192      1.0  0.82339  0.71935  0.90454  1.0000
  H   H189      1.0  0.79755  0.69905  0.91414  1.0000
  H   H190      1.0  0.88546  0.68513  0.95973  1.0000
  H   H191      1.0  0.90604  0.67784  0.75460  1.0000
  H   H192      1.0  0.68491  0.68603  0.02100  1.0000
