data_image0
_chemical_formula_structural       S2C2FeHC6H4SCHNCHS2FeH3C2H2CHFeS2FeS2HFeHSCSFeHC6H7C2H2SCNHC3HCHCHCHCHSCH4SCH2C7HC2H3CHFeC2NH4C2HSCFeHFeCHCNH2SCSCSCH2CHFeS2FeCSH2SHCH2C7H5CHSNFeHFeNHC2SCHCHC2HCHCHCHCS2C2HC2HCFeHFeHSHCSHSCSC2HSH4C3H2CH2CNC4HC2H4CHC4HCH2SH3FeS2FeHSFeHCS2CHC3H3C6H3CHCHSCHCH3NCNHSC2HCHFeSNHC2H2C3HFeS2CSFeSFeS2C5HC4H3FeHC4H3CHNH2NCSHC2H3CHCSHCHCHFeSCSC6FeH4C3HSCH2NHCHSH2CHSFeHC2NHCHFeSH2CH2CHC6H5CSHC2SCH3S2Fe2HSHNFeH2S2C2HFeC6H2SCSC3H3CNHC2H6C2H2CH2SFeCH
_chemical_formula_sum              "S64 C192 Fe32 H192 N16"
_cell_length_a       28.8149
_cell_length_b       28.8285
_cell_length_c       31.3815
_cell_angle_alpha    90.2583
_cell_angle_beta     89.1908
_cell_angle_gamma    89.8252

_space_group_name_H-M_alt    "P 1"
_space_group_IT_number       1

loop_
  _space_group_symop_operation_xyz
  'x, y, z'

loop_
  _atom_site_type_symbol
  _atom_site_label
  _atom_site_symmetry_multiplicity
  _atom_site_fract_x
  _atom_site_fract_y
  _atom_site_fract_z
  _atom_site_occupancy
  S   S1        1.0  0.08025  0.37314  0.22535  1.0000
  S   S2        1.0  0.31854  0.48391  0.02886  1.0000
  C   C1        1.0  0.29526  0.36498  0.07979  1.0000
  C   C2        1.0  0.05122  0.50263  0.21480  1.0000
  Fe  Fe1       1.0  0.08342  0.34640  0.29317  1.0000
  H   H1        1.0  0.29907  0.36922  0.01157  1.0000
  C   C3        1.0  0.13046  0.39713  0.20157  1.0000
  C   C4        1.0  0.12958  0.40971  0.15846  1.0000
  C   C5        1.0  0.16806  0.43140  0.13909  1.0000
  C   C6        1.0  0.20816  0.43953  0.16256  1.0000
  C   C7        1.0  0.20944  0.42588  0.20538  1.0000
  C   C8        1.0  0.17065  0.40497  0.22491  1.0000
  H   H2        1.0  0.09891  0.40266  0.14005  1.0000
  H   H3        1.0  0.16691  0.44125  0.10596  1.0000
  H   H4        1.0  0.24049  0.43173  0.22362  1.0000
  H   H5        1.0  0.17190  0.39505  0.25803  1.0000
  S   S3        1.0  0.25818  0.46409  0.13890  1.0000
  C   C9        1.0  0.22315  0.33587  0.10884  1.0000
  H   H6        1.0  0.08151  0.48901  0.23249  1.0000
  N   N1        1.0  0.23413  0.34192  0.03297  1.0000
  C   C10       1.0  0.26784  0.35283  0.11496  1.0000
  H   H7        1.0  0.20101  0.32811  0.13619  1.0000
  S   S4        1.0  0.20568  0.46927  0.02162  1.0000
  S   S5        1.0  0.09554  0.27124  0.30790  1.0000
  Fe  Fe2       1.0  0.25600  0.49146  0.07163  1.0000
  H   H8        1.0  0.28043  0.35862  0.14701  1.0000
  H   H9        1.0  0.17131  0.31903  0.06299  1.0000
  H   H10       1.0  0.03259  0.47244  0.20101  1.0000
  C   C11       1.0  0.20654  0.33107  0.06737  1.0000
  C   C12       1.0  0.27776  0.35924  0.03876  1.0000
  H   H11       1.0  0.07350  0.48162  0.13422  1.0000
  H   H12       1.0  0.32931  0.38001  0.08442  1.0000
  C   C13       1.0  0.21607  0.33758  0.98969  1.0000
  H   H13       1.0  0.18791  0.31147  0.98795  1.0000
  Fe  Fe3       1.0  0.06922  0.37269  0.38569  1.0000
  S   S6        1.0  0.01929  0.35135  0.33503  1.0000
  S   S7        1.0  0.05446  0.42754  0.43601  1.0000
  Fe  Fe4       1.0  0.13964  0.29692  0.36128  1.0000
  S   S8        1.0  0.13232  0.37222  0.34302  1.0000
  S   S9        1.0  0.21114  0.26599  0.37215  1.0000
  H   H14       1.0  0.05049  0.49258  0.36228  1.0000
  Fe  Fe5       1.0  0.03600  0.27830  0.35469  1.0000
  H   H15       1.0  0.19271  0.25690  0.50598  1.0000
  S   S10       1.0  0.08102  0.29954  0.40901  1.0000
  C   C14       1.0  0.14272  0.01599  0.45566  1.0000
  S   S11       1.0  0.23851  0.09013  0.49128  1.0000
  Fe  Fe6       1.0  0.29782  0.03838  0.49820  1.0000
  H   H16       1.0  0.03083  0.49441  0.49820  1.0000
  C   C15       1.0  0.23182  0.13741  0.45605  1.0000
  C   C16       1.0  0.26880  0.15525  0.43196  1.0000
  C   C17       1.0  0.26189  0.19432  0.40587  1.0000
  C   C18       1.0  0.21790  0.21527  0.40312  1.0000
  C   C19       1.0  0.18083  0.19695  0.42673  1.0000
  C   C20       1.0  0.18790  0.15848  0.45333  1.0000
  H   H17       1.0  0.30280  0.13947  0.43392  1.0000
  H   H18       1.0  0.29078  0.20837  0.38776  1.0000
  H   H19       1.0  0.14682  0.21276  0.42491  1.0000
  H   H20       1.0  0.15912  0.14503  0.47197  1.0000
  H   H21       1.0  0.24439  0.29780  0.45534  1.0000
  H   H22       1.0  0.24648  0.35535  0.39721  1.0000
  H   H23       1.0  0.25975  0.39841  0.43742  1.0000
  C   C21       1.0  0.16070  0.37870  0.46503  1.0000
  C   C22       1.0  0.13103  0.35667  0.49418  1.0000
  H   H24       1.0  0.15107  0.41265  0.45312  1.0000
  H   H25       1.0  0.09875  0.37330  0.50412  1.0000
  S   S12       1.0  0.37227  0.04432  0.51979  1.0000
  C   C23       1.0  0.18368  0.29150  0.49526  1.0000
  N   N2        1.0  0.20052  0.35731  0.45094  1.0000
  H   H26       1.0  0.46124  0.06296  0.42992  1.0000
  C   C24       1.0  0.14244  0.31258  0.50901  1.0000
  C   C25       1.0  0.21276  0.31477  0.46646  1.0000
  C   C26       1.0  0.23130  0.38075  0.42035  1.0000
  H   H27       1.0  0.11908  0.29456  0.53066  1.0000
  C   C27       1.0  0.04183  0.48753  0.43050  1.0000
  H   H28       1.0  0.21206  0.40668  0.40125  1.0000
  C   C28       1.0  0.49498  0.04864  0.43709  1.0000
  H   H29       1.0  0.15492  0.05083  0.44870  1.0000
  C   C29       1.0  0.51014  0.04757  0.54756  1.0000
  H   H30       1.0  0.48189  0.06681  0.53339  1.0000
  C   C30       1.0  0.04228  0.51125  0.39140  1.0000
  H   H31       1.0  0.09475  0.01423  0.40395  1.0000
  S   S13       1.0  0.49179  0.33757  0.90807  1.0000
  C   C31       1.0  0.47802  0.45129  0.87806  1.0000
  H   H32       1.0  0.36667  0.42085  0.98032  1.0000
  H   H33       1.0  0.48834  0.42735  0.85282  1.0000
  H   H34       1.0  0.41006  0.46297  0.85309  1.0000
  H   H35       1.0  0.10954  0.50337  0.96346  1.0000
  S   S14       1.0  0.28438  0.41171  0.92823  1.0000
  C   C32       1.0  0.48902  0.06019  0.87782  1.0000
  H   H36       1.0  0.32822  0.35356  0.86384  1.0000
  H   H37       1.0  0.45281  0.06782  0.87236  1.0000
  C   C33       1.0  0.34170  0.38976  0.92268  1.0000
  C   C34       1.0  0.35397  0.36163  0.88751  1.0000
  C   C35       1.0  0.39962  0.34425  0.88254  1.0000
  C   C36       1.0  0.43301  0.35459  0.91309  1.0000
  C   C37       1.0  0.42042  0.38208  0.94839  1.0000
  C   C38       1.0  0.37524  0.39972  0.95304  1.0000
  C   C39       1.0  0.50387  0.01394  0.88067  1.0000
  H   H38       1.0  0.40900  0.32321  0.85510  1.0000
  C   C40       1.0  0.43369  0.47124  0.87860  1.0000
  C   C41       1.0  0.44935  0.50924  0.94415  1.0000
  H   H39       1.0  0.44606  0.39030  0.97212  1.0000
  H   H40       1.0  0.03134  0.47263  0.94658  1.0000
  H   H41       1.0  0.24398  0.32648  0.96693  1.0000
  C   C42       1.0  0.03449  0.50422  0.96506  1.0000
  H   H42       1.0  0.50155  0.13762  0.69525  1.0000
  Fe  Fe7       1.0  0.26826  0.46795  0.97732  1.0000
  C   C43       1.0  0.49378  0.48947  0.94484  1.0000
  C   C44       1.0  0.50797  0.46002  0.91168  1.0000
  N   N3        1.0  0.41970  0.49925  0.91171  1.0000
  H   H43       1.0  0.34801  0.49744  0.89491  1.0000
  H   H44       1.0  0.20257  0.37168  0.97893  1.0000
  H   H45       1.0  0.49704  0.06180  0.65671  1.0000
  H   H46       1.0  0.50885  0.13224  0.88060  1.0000
  C   C45       1.0  0.51116  0.06352  0.68854  1.0000
  C   C46       1.0  0.10343  0.59396  0.11982  1.0000
  H   H47       1.0  0.11777  0.61691  0.09568  1.0000
  S   S15       1.0  0.24993  0.56759  0.05902  1.0000
  C   C47       1.0  0.07332  0.58061  0.19091  1.0000
  Fe  Fe8       1.0  0.20238  0.54542  0.00652  1.0000
  H   H48       1.0  0.09548  0.64750  0.16770  1.0000
  Fe  Fe9       1.0  0.30737  0.55818  0.01065  1.0000
  C   C48       1.0  0.09121  0.61099  0.16016  1.0000
  H   H49       1.0  0.10689  0.53338  0.07948  1.0000
  C   C49       1.0  0.09720  0.54706  0.11062  1.0000
  N   N4        1.0  0.06719  0.53464  0.18150  1.0000
  H   H50       1.0  0.26769  0.87756  0.31577  1.0000
  H   H51       1.0  0.06422  0.59420  0.22226  1.0000
  S   S16       1.0  0.37338  0.60026  0.00393  1.0000
  C   C50       1.0  0.07864  0.51784  0.14188  1.0000
  S   S17       1.0  0.13722  0.58933  0.00464  1.0000
  C   C51       1.0  0.04278  0.58674  0.01111  1.0000
  S   S18       1.0  0.01355  0.68664  0.21597  1.0000
  C   C52       1.0  0.08287  0.56339  0.99680  1.0000
  H   H52       1.0  0.04584  0.61904  0.02853  1.0000
  H   H53       1.0  0.02694  0.52012  0.23759  1.0000
  C   C53       1.0  0.02114  0.55966  0.46674  1.0000
  H   H54       1.0  0.03260  0.57781  0.36024  1.0000
  Fe  Fe10      1.0  0.29727  0.93303  0.50297  1.0000
  S   S19       1.0  0.06629  0.70844  0.32969  1.0000
  S   S20       1.0  0.25472  0.86746  0.49597  1.0000
  Fe  Fe11      1.0  0.35423  0.98942  0.56789  1.0000
  C   C54       1.0  0.28121  0.83229  0.36858  1.0000
  S   S21       1.0  0.10884  0.84173  0.34783  1.0000
  H   H55       1.0  0.49082  0.86324  0.62974  1.0000
  H   H56       1.0  0.39481  0.80790  0.44230  1.0000
  S   S22       1.0  0.37077  0.92940  0.52537  1.0000
  H   H57       1.0  0.38617  0.91104  0.39133  1.0000
  C   C55       1.0  0.47380  0.88920  0.64953  1.0000
  H   H58       1.0  0.06808  0.93377  0.37788  1.0000
  H   H59       1.0  0.43388  0.91750  0.59794  1.0000
  C   C56       1.0  0.11174  0.92691  0.47269  1.0000
  C   C57       1.0  0.14877  0.84826  0.38954  1.0000
  C   C58       1.0  0.15279  0.81531  0.42182  1.0000
  C   C59       1.0  0.18531  0.82175  0.45436  1.0000
  C   C60       1.0  0.21356  0.86136  0.45517  1.0000
  C   C61       1.0  0.20908  0.89460  0.42316  1.0000
  C   C62       1.0  0.17702  0.88787  0.39032  1.0000
  H   H60       1.0  0.13123  0.78462  0.42145  1.0000
  H   H61       1.0  0.18862  0.79584  0.47901  1.0000
  H   H62       1.0  0.23053  0.92528  0.42345  1.0000
  H   H63       1.0  0.17398  0.91357  0.36547  1.0000
  H   H64       1.0  0.46844  0.98612  0.55631  1.0000
  C   C63       1.0  0.37677  0.84156  0.44747  1.0000
  H   H65       1.0  0.10072  0.89165  0.47908  1.0000
  S   S23       1.0  0.45159  0.96386  0.44128  1.0000
  N   N5        1.0  0.09406  0.95096  0.43902  1.0000
  Fe  Fe12      1.0  0.05514  0.78417  0.34490  1.0000
  H   H66       1.0  0.40361  0.86873  0.45221  1.0000
  Fe  Fe13      1.0  0.38544  0.98349  0.47606  1.0000
  N   N6        1.0  0.34705  0.85190  0.41119  1.0000
  H   H67       1.0  0.18758  0.00737  0.50934  1.0000
  C   C64       1.0  0.35673  0.88868  0.38513  1.0000
  C   C65       1.0  0.32841  0.89849  0.35042  1.0000
  S   S24       1.0  0.38117  0.99527  0.63534  1.0000
  C   C66       1.0  0.30986  0.82389  0.40336  1.0000
  H   H68       1.0  0.02429  0.94697  0.41831  1.0000
  C   C67       1.0  0.02155  0.58379  0.42819  1.0000
  H   H69       1.0  0.25104  0.81066  0.36312  1.0000
  C   C68       1.0  0.49960  0.00127  0.44537  1.0000
  C   C69       1.0  0.44155  0.91997  0.63144  1.0000
  H   H70       1.0  0.30144  0.79556  0.42475  1.0000
  C   C70       1.0  0.29042  0.87005  0.34217  1.0000
  H   H71       1.0  0.35537  0.83964  0.47721  1.0000
  C   C71       1.0  0.03220  0.55952  0.39025  1.0000
  H   H72       1.0  0.33575  0.92819  0.33033  1.0000
  C   C72       1.0  0.03128  0.51218  0.46790  1.0000
  H   H73       1.0  0.16092  0.92709  0.52418  1.0000
  C   C73       1.0  0.14570  0.94677  0.49843  1.0000
  S   S25       1.0  0.31298  0.98210  0.44972  1.0000
  S   S26       1.0  0.27886  0.98834  0.55061  1.0000
  C   C74       1.0  0.16114  0.99159  0.48979  1.0000
  C   C75       1.0  0.10888  0.99506  0.43050  1.0000
  H   H74       1.0  0.05486  0.89216  0.41791  1.0000
  C   C76       1.0  0.05844  0.93004  0.41215  1.0000
  C   C77       1.0  0.50230  0.00185  0.56047  1.0000
  H   H75       1.0  0.01303  0.57786  0.49615  1.0000
  C   C78       1.0  0.41975  0.95395  0.65675  1.0000
  Fe  Fe14      1.0  0.49040  0.89658  0.86304  1.0000
  H   H76       1.0  0.41407  0.98322  0.71984  1.0000
  Fe  Fe15      1.0  0.45612  0.79563  0.85274  1.0000
  H   H77       1.0  0.43838  0.53204  0.97008  1.0000
  S   S27       1.0  0.39140  0.75179  0.85841  1.0000
  H   H78       1.0  0.31982  0.80865  0.80402  1.0000
  C   C79       1.0  0.33796  0.85694  0.85374  1.0000
  S   S28       1.0  0.48879  0.83473  0.90611  1.0000
  H   H79       1.0  0.33840  0.89783  0.93034  1.0000
  S   S29       1.0  0.45062  0.85937  0.81293  1.0000
  C   C80       1.0  0.48366  0.89140  0.69318  1.0000
  S   S30       1.0  0.46306  0.96903  0.87510  1.0000
  C   C81       1.0  0.43005  0.95648  0.70023  1.0000
  C   C82       1.0  0.46137  0.92508  0.71847  1.0000
  H   H80       1.0  0.36946  0.96797  0.83945  1.0000
  S   S31       1.0  0.25951  0.54213  0.95681  1.0000
  H   H81       1.0  0.44743  0.66186  0.98057  1.0000
  H   H82       1.0  0.33542  0.83078  0.87844  1.0000
  H   H83       1.0  0.35215  0.94768  0.76460  1.0000
  H   H84       1.0  0.46944  0.92815  0.75182  1.0000
  C   C83       1.0  0.37801  0.64228  0.96336  1.0000
  C   C84       1.0  0.38733  0.70958  0.89883  1.0000
  C   C85       1.0  0.42389  0.70147  0.92673  1.0000
  H   H85       1.0  0.36641  0.95024  0.91286  1.0000
  H   H86       1.0  0.04088  0.67507  0.94173  1.0000
  C   C86       1.0  0.41923  0.66780  0.95886  1.0000
  H   H87       1.0  0.45558  0.72130  0.92370  1.0000
  H   H88       1.0  0.31793  0.68992  0.88166  1.0000
  C   C87       1.0  0.35690  0.93346  0.83201  1.0000
  N   N7        1.0  0.35184  0.90101  0.86346  1.0000
  C   C88       1.0  0.34633  0.68377  0.90313  1.0000
  C   C89       1.0  0.36431  0.91216  0.90746  1.0000
  C   C90       1.0  0.34161  0.65030  0.93533  1.0000
  C   C91       1.0  0.34752  0.92214  0.78956  1.0000
  H   H89       1.0  0.30963  0.63111  0.93866  1.0000
  C   C92       1.0  0.32886  0.84426  0.81159  1.0000
  C   C93       1.0  0.33373  0.87713  0.77933  1.0000
  H   H90       1.0  0.32792  0.86749  0.74635  1.0000
  H   H91       1.0  0.39900  0.89717  0.91437  1.0000
  H   H92       1.0  0.37431  0.55473  0.89675  1.0000
  H   H93       1.0  0.35977  0.52403  0.94491  1.0000
  C   C94       1.0  0.37321  0.51992  0.91180  1.0000
  H   H94       1.0  0.05443  0.59718  0.91004  1.0000
  C   C95       1.0  0.07873  0.52150  0.97462  1.0000
  C   C96       1.0  0.02053  0.61353  0.90784  1.0000
  C   C97       1.0  0.01282  0.65725  0.92580  1.0000
  C   C98       1.0  0.64743  0.24410  0.00242  1.0000
  H   H95       1.0  0.61965  0.22947  0.02177  1.0000
  C   C99       1.0  0.66289  0.28921  0.00999  1.0000
  H   H96       1.0  0.64727  0.31003  0.03530  1.0000
  H   H97       1.0  0.87753  0.21891  0.31012  1.0000
  S   S32       1.0  0.70667  0.49318  0.99232  1.0000
  H   H98       1.0  0.92490  0.28999  0.30768  1.0000
  H   H99       1.0  0.71054  0.34277  0.98992  1.0000
  H   H100      1.0  0.59579  0.12031  0.52538  1.0000
  Fe  Fe16      1.0  0.78326  0.12878  0.49654  1.0000
  S   S33       1.0  0.80120  0.07372  0.54353  1.0000
  S   S34       1.0  0.82368  0.19612  0.49426  1.0000
  Fe  Fe17      1.0  0.69435  0.07843  0.47197  1.0000
  H   H101      1.0  0.79908  0.27322  0.41513  1.0000
  S   S35       1.0  0.62748  0.09517  0.43866  1.0000
  Fe  Fe18      1.0  0.72606  0.07485  0.56302  1.0000
  H   H102      1.0  0.75783  0.22131  0.56797  1.0000
  C   C100      1.0  0.58851  0.04291  0.56970  1.0000
  S   S36       1.0  0.70965  0.13373  0.52016  1.0000
  S   S37       1.0  0.76709  0.07872  0.44376  1.0000
  C   C101      1.0  0.57871  0.05860  0.44322  1.0000
  H   H103      1.0  0.90930  0.35373  0.35952  1.0000
  C   C102      1.0  0.88768  0.32294  0.35972  1.0000
  C   C103      1.0  0.80692  0.19990  0.36338  1.0000
  C   C104      1.0  0.56040  0.11569  0.53933  1.0000
  H   H104      1.0  0.59102  0.20435  0.62477  1.0000
  H   H105      1.0  0.92734  0.14134  0.37903  1.0000
  H   H106      1.0  0.64486  0.14578  0.59296  1.0000
  C   C105      1.0  0.94611  0.20980  0.40046  1.0000
  C   C106      1.0  0.93691  0.24480  0.43045  1.0000
  C   C107      1.0  0.90052  0.23943  0.46046  1.0000
  C   C108      1.0  0.87346  0.19896  0.46085  1.0000
  C   C109      1.0  0.88429  0.16304  0.43231  1.0000
  C   C110      1.0  0.92020  0.16865  0.40200  1.0000
  H   H107      1.0  0.95673  0.27661  0.42953  1.0000
  H   H108      1.0  0.89254  0.26725  0.48264  1.0000
  H   H109      1.0  0.86402  0.13151  0.43261  1.0000
  C   C111      1.0  0.53453  0.07699  0.43524  1.0000
  H   H110      1.0  0.84575  0.34523  0.41343  1.0000
  C   C112      1.0  0.80191  0.16386  0.62098  1.0000
  H   H111      1.0  0.53573  0.12648  0.51429  1.0000
  S   S38       1.0  0.70291  0.07483  0.63230  1.0000
  C   C113      1.0  0.85210  0.31811  0.38999  1.0000
  H   H112      1.0  0.79416  0.19248  0.39631  1.0000
  C   C114      1.0  0.63982  0.14737  0.62708  1.0000
  H   H113      1.0  0.53098  0.11320  0.42691  1.0000
  H   H114      1.0  0.82783  0.16920  0.35319  1.0000
  H   H115      1.0  0.55602  0.13885  0.56745  1.0000
  N   N8        1.0  0.76417  0.19627  0.63160  1.0000
  C   C115      1.0  0.86936  0.24704  0.33207  1.0000
  N   N9        1.0  0.83504  0.24223  0.36233  1.0000
  H   H116      1.0  0.81385  0.16724  0.58725  1.0000
  S   S39       1.0  0.98568  0.21795  0.35769  1.0000
  C   C116      1.0  0.89624  0.28735  0.33040  1.0000
  C   C117      1.0  0.82581  0.27733  0.39073  1.0000
  H   H117      1.0  0.78998  0.12761  0.62595  1.0000
  C   C118      1.0  0.60935  0.18055  0.64517  1.0000
  H   H118      1.0  0.62236  0.05867  0.57352  1.0000
  Fe  Fe19      1.0  0.78096  0.02285  0.49238  1.0000
  S   S40       1.0  0.70667  0.01892  0.51657  1.0000
  N   N10       1.0  0.55299  0.06732  0.55182  1.0000
  H   H119      1.0  0.83229  0.17051  0.64148  1.0000
  C   C119      1.0  0.74520  0.22351  0.60071  1.0000
  C   C120      1.0  0.66387  0.11670  0.65330  1.0000
  H   H120      1.0  0.77670  0.20362  0.34210  1.0000
  H   H121      1.0  0.69366  0.27551  0.58622  1.0000
  C   C121      1.0  0.58310  0.01166  0.45353  1.0000
  C   C122      1.0  0.70904  0.25439  0.61084  1.0000
  C   C123      1.0  0.69256  0.25739  0.65282  1.0000
  H   H122      1.0  0.75349  0.19374  0.91701  1.0000
  Fe  Fe20      1.0  0.57365  0.24601  0.78173  1.0000
  S   S41       1.0  0.63836  0.22325  0.81401  1.0000
  S   S42       1.0  0.56737  0.22802  0.71143  1.0000
  C   C124      1.0  0.52077  0.09674  0.88232  1.0000
  S   S43       1.0  0.59523  0.26846  0.90072  1.0000
  Fe  Fe21      1.0  0.63730  0.29315  0.84533  1.0000
  S   S44       1.0  0.70438  0.33197  0.85377  1.0000
  Fe  Fe22      1.0  0.58991  0.20078  0.86624  1.0000
  S   S45       1.0  0.60798  0.13232  0.89623  1.0000
  S   S46       1.0  0.57649  0.31894  0.80857  1.0000
  C   C125      1.0  0.70615  0.44911  0.95309  1.0000
  C   C126      1.0  0.56747  0.08720  0.89023  1.0000
  C   C127      1.0  0.71733  0.28080  0.95137  1.0000
  C   C128      1.0  0.58232  0.04094  0.89309  1.0000
  C   C129      1.0  0.74650  0.43689  0.93038  1.0000
  H   H123      1.0  0.77680  0.39199  0.88231  1.0000
  C   C130      1.0  0.65710  0.11938  0.69758  1.0000
  C   C131      1.0  0.62757  0.15322  0.71568  1.0000
  C   C132      1.0  0.60378  0.18420  0.68960  1.0000
  C   C133      1.0  0.54532  0.06619  0.77066  1.0000
  H   H124      1.0  0.67526  0.09552  0.71808  1.0000
  H   H125      1.0  0.62296  0.15489  0.74984  1.0000
  H   H126      1.0  0.54166  0.44305  0.91239  1.0000
  Fe  Fe23      1.0  0.53327  0.29092  0.86307  1.0000
  H   H127      1.0  0.76187  0.17590  0.69684  1.0000
  C   C134      1.0  0.74533  0.40145  0.89951  1.0000
  C   C135      1.0  0.70387  0.37799  0.89106  1.0000
  C   C136      1.0  0.66342  0.39019  0.91371  1.0000
  C   C137      1.0  0.52684  0.02319  0.70850  1.0000
  H   H128      1.0  0.55856  0.06752  0.80278  1.0000
  H   H129      1.0  0.69609  0.18307  0.89667  1.0000
  H   H130      1.0  0.63131  0.37215  0.90758  1.0000
  C   C138      1.0  0.66462  0.42561  0.94470  1.0000
  H   H131      1.0  0.72714  0.23332  0.87958  1.0000
  N   N11       1.0  0.54350  0.02491  0.74912  1.0000
  H   H132      1.0  0.77881  0.45430  0.93696  1.0000
  H   H133      1.0  0.61838  0.03332  0.89935  1.0000
  N   N12       1.0  0.70089  0.23722  0.94323  1.0000
  C   C139      1.0  0.53017  0.10719  0.75162  1.0000
  S   S47       1.0  0.93977  0.50907  0.96112  1.0000
  H   H134      1.0  0.65447  0.18348  0.96278  1.0000
  C   C140      1.0  0.74781  0.19858  0.67270  1.0000
  C   C141      1.0  0.72051  0.21041  0.90746  1.0000
  H   H135      1.0  0.74447  0.29561  0.93136  1.0000
  H   H136      1.0  0.51671  0.49634  0.97123  1.0000
  H   H137      1.0  0.69868  0.23079  0.71652  1.0000
  C   C142      1.0  0.71211  0.22946  0.68402  1.0000
  H   H138      1.0  0.63333  0.43472  0.96231  1.0000
  C   C143      1.0  0.51310  0.10582  0.71028  1.0000
  S   S48       1.0  0.52434  0.22007  0.83287  1.0000
  H   H139      1.0  0.66386  0.28042  0.66112  1.0000
  C   C144      1.0  0.66724  0.21825  0.96892  1.0000
  H   H140      1.0  0.53199  0.13996  0.76867  1.0000
  C   C145      1.0  0.69837  0.30760  0.98459  1.0000
  H   H141      1.0  0.95288  0.82143  0.16402  1.0000
  Fe  Fe24      1.0  0.82755  0.60377  0.05299  1.0000
  S   S49       1.0  0.82880  0.63428  0.11969  1.0000
  C   C146      1.0  0.82459  0.74951  0.16677  1.0000
  S   S50       1.0  0.76217  0.61131  0.01500  1.0000
  C   C147      1.0  0.96284  0.66730  0.19043  1.0000
  C   C148      1.0  0.96491  0.65502  0.14705  1.0000
  C   C149      1.0  0.92431  0.64286  0.12519  1.0000
  C   C150      1.0  0.88146  0.64269  0.14674  1.0000
  C   C151      1.0  0.87977  0.65338  0.19041  1.0000
  C   C152      1.0  0.92018  0.66593  0.21211  1.0000
  Fe  Fe25      1.0  0.77202  0.53624  0.99783  1.0000
  H   H142      1.0  0.92603  0.63458  0.09154  1.0000
  H   H143      1.0  0.84678  0.65307  0.20731  1.0000
  H   H144      1.0  0.91809  0.67507  0.24546  1.0000
  H   H145      1.0  0.97194  0.77946  0.20280  1.0000
  C   C153      1.0  0.80804  0.75914  0.20786  1.0000
  C   C154      1.0  0.88426  0.78626  0.22662  1.0000
  C   C155      1.0  0.87112  0.75839  0.15648  1.0000
  H   H146      1.0  0.77223  0.75167  0.21640  1.0000
  S   S51       1.0  0.87461  0.62493  0.99867  1.0000
  C   C156      1.0  0.94904  0.78513  0.17508  1.0000
  H   H147      1.0  0.59333  0.63173  0.01803  1.0000
  H   H148      1.0  0.82554  0.78567  0.27007  1.0000
  N   N13       1.0  0.90045  0.77581  0.18648  1.0000
  H   H149      1.0  0.90721  0.80073  0.25033  1.0000
  C   C157      1.0  0.83793  0.77789  0.23797  1.0000
  H   H150      1.0  0.88391  0.74951  0.12479  1.0000
  S   S52       1.0  0.83314  0.52690  0.04091  1.0000
  H   H151      1.0  0.96175  0.76094  0.14975  1.0000
  H   H152      1.0  0.80204  0.73374  0.14336  1.0000
  C   C158      1.0  0.99861  0.56896  0.00233  1.0000
  H   H153      1.0  0.99780  0.65586  0.13003  1.0000
  S   S53       1.0  0.00212  0.79341  0.29361  1.0000
  Fe  Fe26      1.0  0.00811  0.71663  0.28292  1.0000
  H   H154      1.0  0.96795  0.58747  0.01305  1.0000
  C   C159      1.0  0.91907  0.72334  0.47606  1.0000
  C   C160      1.0  0.58191  0.99710  0.58294  1.0000
  N   N14       1.0  0.86206  0.78436  0.48066  1.0000
  H   H155      1.0  0.81752  0.84411  0.48410  1.0000
  C   C161      1.0  0.54371  0.98289  0.45377  1.0000
  H   H156      1.0  0.86810  0.84739  0.51593  1.0000
  Fe  Fe27      1.0  0.94934  0.77620  0.34411  1.0000
  S   S54       1.0  0.88032  0.81447  0.34472  1.0000
  H   H157      1.0  0.91432  0.77315  0.52703  1.0000
  H   H158      1.0  0.82057  0.81009  0.53204  1.0000
  C   C162      1.0  0.86218  0.73170  0.42103  1.0000
  H   H159      1.0  0.91513  0.67868  0.42104  1.0000
  H   H160      1.0  0.94908  0.70548  0.48882  1.0000
  C   C163      1.0  0.84099  0.82321  0.50439  1.0000
  H   H161      1.0  0.84810  0.72114  0.39062  1.0000
  C   C164      1.0  0.86997  0.86015  0.38157  1.0000
  C   C165      1.0  0.90234  0.87126  0.41273  1.0000
  C   C166      1.0  0.89158  0.90495  0.44392  1.0000
  C   C167      1.0  0.84852  0.92804  0.44422  1.0000
  C   C168      1.0  0.81660  0.91783  0.41237  1.0000
  C   C169      1.0  0.82726  0.88384  0.38127  1.0000
  H   H162      1.0  0.93528  0.85327  0.41334  1.0000
  H   H163      1.0  0.91636  0.91255  0.46856  1.0000
  H   H164      1.0  0.78317  0.93506  0.41251  1.0000
  H   H165      1.0  0.80196  0.87540  0.35732  1.0000
  H   H166      1.0  0.81426  0.78818  0.42936  1.0000
  C   C170      1.0  0.89943  0.76165  0.49727  1.0000
  S   S55       1.0  0.83422  0.96419  0.48820  1.0000
  H   H167      1.0  0.54755  0.94616  0.45979  1.0000
  C   C171      1.0  0.84332  0.76977  0.44309  1.0000
  C   C172      1.0  0.90010  0.70825  0.43782  1.0000
  S   S56       1.0  0.00775  0.64385  0.43059  1.0000
  C   C173      1.0  0.53852  0.97645  0.57813  1.0000
  H   H168      1.0  0.53301  0.94078  0.58786  1.0000
  H   H169      1.0  0.61045  0.97774  0.59656  1.0000
  H   H170      1.0  0.61705  0.99710  0.45938  1.0000
  S   S57       1.0  0.95111  0.69967  0.32962  1.0000
  S   S58       1.0  0.00156  0.77173  0.39623  1.0000
  Fe  Fe28      1.0  0.00850  0.69622  0.37712  1.0000
  Fe  Fe29      1.0  0.87638  0.54853  0.98421  1.0000
  H   H171      1.0  0.54913  0.68545  0.97140  1.0000
  S   S59       1.0  0.81567  0.55119  0.94028  1.0000
  H   H172      1.0  0.72451  0.60247  0.92299  1.0000
  N   N15       1.0  0.94054  0.60975  0.88748  1.0000
  Fe  Fe30      1.0  0.80968  0.62576  0.95967  1.0000
  H   H173      1.0  0.73697  0.69990  0.97764  1.0000
  H   H174      1.0  0.56237  0.96882  0.89067  1.0000
  S   S60       1.0  0.60602  0.78773  0.92303  1.0000
  S   S61       1.0  0.79468  0.67417  0.90505  1.0000
  C   C174      1.0  0.98368  0.58996  0.88902  1.0000
  C   C175      1.0  0.62788  0.64334  0.89939  1.0000
  H   H175      1.0  0.69636  0.59161  0.87340  1.0000
  Fe  Fe31      1.0  0.55637  0.81476  0.87345  1.0000
  C   C176      1.0  0.74237  0.70613  0.90947  1.0000
  C   C177      1.0  0.72168  0.72463  0.87294  1.0000
  C   C178      1.0  0.67974  0.74987  0.87622  1.0000
  C   C179      1.0  0.65884  0.75727  0.91622  1.0000
  C   C180      1.0  0.67970  0.73884  0.95257  1.0000
  C   C181      1.0  0.72105  0.71317  0.94922  1.0000
  H   H176      1.0  0.73808  0.71945  0.84206  1.0000
  H   H177      1.0  0.66390  0.76398  0.84802  1.0000
  S   S62       1.0  0.52587  0.85380  0.71481  1.0000
  C   C182      1.0  0.58992  0.66861  0.91546  1.0000
  S   S63       1.0  0.56031  0.88050  0.83461  1.0000
  C   C183      1.0  0.96870  0.67726  0.92402  1.0000
  C   C184      1.0  0.55700  0.98219  0.77092  1.0000
  C   C185      1.0  0.90290  0.58432  0.86699  1.0000
  H   H178      1.0  0.63855  0.64843  0.86647  1.0000
  H   H179      1.0  0.57162  0.69292  0.89530  1.0000
  H   H180      1.0  0.68972  0.55101  0.91644  1.0000
  C   C186      1.0  0.93279  0.65303  0.90430  1.0000
  N   N16       1.0  0.65207  0.61401  0.92518  1.0000
  H   H181      1.0  0.98943  0.55507  0.87686  1.0000
  C   C187      1.0  0.55069  0.00436  0.88795  1.0000
  C   C188      1.0  0.69252  0.58848  0.90853  1.0000
  H   H182      1.0  0.96213  0.71106  0.93821  1.0000
  H   H183      1.0  0.89850  0.66876  0.90323  1.0000
  H   H184      1.0  0.91021  0.58072  0.83232  1.0000
  H   H185      1.0  0.52935  0.97233  0.79422  1.0000
  H   H186      1.0  0.66375  0.74450  0.98360  1.0000
  H   H187      1.0  0.86884  0.60222  0.87121  1.0000
  C   C189      1.0  0.57745  0.66459  0.95837  1.0000
  C   C190      1.0  0.99435  0.52824  0.97836  1.0000
  H   H188      1.0  0.52519  0.99046  0.69143  1.0000
  H   H189      1.0  0.89963  0.54916  0.88123  1.0000
  C   C191      1.0  0.63979  0.60943  0.96723  1.0000
  H   H190      1.0  0.58989  0.98720  0.78843  1.0000
  H   H191      1.0  0.56233  0.95270  0.74831  1.0000
  S   S64       1.0  0.52293  0.77262  0.82158  1.0000
  Fe  Fe32      1.0  0.51980  0.84064  0.78584  1.0000
  C   C192      1.0  0.60240  0.63472  0.98449  1.0000
  H   H192      1.0  0.65938  0.58650  0.98773  1.0000
