data_image0
_chemical_formula_structural       HCSC6HC2H3CNCSC2FeH3CHNCH2CH4SHCHCH2CFeHNFeS2Fe2S3C6H6CH2CNHCSHCHCHCHCHC2HCHCH2SC2NHCHSCSFeCSFeS3FeS3C6H4CHC3HCH7NC2FeHCSH2CFeSFeS2C2FeHFeS3C6SH2FeHCHCHCH3CHSHCH2C2HC2H3C2HCH2S3FeHFeHSC2SH5C7H3C3SFeH2CSCHFeNHCH3CH4CHC4NCH2CHCHNHCHCFeS2NHFeSHS2HC6H5CHCHC2SC2HCHCHCFeHC2FeSFeSFeSFeS3C5HC6H5CSH5CH2CNC2SH2CH3SH2NH2C3FeCHC3S2H2C2HC2H5CHCH2C5NHSHCHCHCNHC3H6C2H2FeCSCHCSC2H2C2NC4HCH3CHSHFeS2H4CFe2S2H2FeCHCSNC3H2C6H4SHCHFeCSHCHSCHC
_chemical_formula_sum              "H192 C192 S64 N16 Fe32"
_cell_length_a       25.8885
_cell_length_b       26.2533
_cell_length_c       35.3986
_cell_angle_alpha    90.2029
_cell_angle_beta     89.8921
_cell_angle_gamma    89.3272

_space_group_name_H-M_alt    "P 1"
_space_group_IT_number       1

loop_
  _space_group_symop_operation_xyz
  'x, y, z'

loop_
  _atom_site_type_symbol
  _atom_site_label
  _atom_site_symmetry_multiplicity
  _atom_site_fract_x
  _atom_site_fract_y
  _atom_site_fract_z
  _atom_site_occupancy
  H   H1        1.0  0.11512  0.28369  0.07766  1.0000
  C   C1        1.0  0.14858  0.08174  0.16494  1.0000
  S   S1        1.0  0.12507  0.21562  0.14227  1.0000
  C   C2        1.0  0.15067  0.43969  0.07667  1.0000
  C   C3        1.0  0.04362  0.50622  0.18479  1.0000
  C   C4        1.0  0.15804  0.21914  0.09883  1.0000
  C   C5        1.0  0.19882  0.18486  0.09167  1.0000
  C   C6        1.0  0.15781  0.08002  0.23277  1.0000
  C   C7        1.0  0.14617  0.25685  0.07225  1.0000
  H   H2        1.0  0.20859  0.15590  0.11217  1.0000
  C   C8        1.0  0.04465  0.50577  0.14532  1.0000
  C   C9        1.0  0.21751  0.37249  0.07839  1.0000
  H   H3        1.0  0.17203  0.33029  0.17711  1.0000
  H   H4        1.0  0.11918  0.14050  0.20240  1.0000
  H   H5        1.0  0.13490  0.10143  0.13989  1.0000
  C   C10       1.0  0.22778  0.18833  0.05826  1.0000
  N   N1        1.0  0.17797  0.39820  0.09611  1.0000
  C   C11       1.0  0.22637  0.31663  0.13203  1.0000
  S   S2        1.0  0.05830  0.33483  0.18985  1.0000
  C   C12       1.0  0.13968  0.10424  0.20030  1.0000
  C   C13       1.0  0.18452  0.03378  0.22954  1.0000
  Fe  Fe1       1.0  0.05544  0.26703  0.15102  1.0000
  H   H6        1.0  0.24392  0.28366  0.14552  1.0000
  H   H7        1.0  0.25942  0.16189  0.05310  1.0000
  H   H8        1.0  0.14040  0.47084  0.09684  1.0000
  C   C14       1.0  0.18570  0.34268  0.14968  1.0000
  H   H9        1.0  0.03413  0.47190  0.20004  1.0000
  N   N2        1.0  0.17420  0.03592  0.16209  1.0000
  C   C15       1.0  0.24264  0.33168  0.09622  1.0000
  H   H10       1.0  0.27290  0.31037  0.08164  1.0000
  H   H11       1.0  0.15136  0.09711  0.26039  1.0000
  C   C16       1.0  0.16168  0.38358  0.13117  1.0000
  H   H12       1.0  0.19931  0.01510  0.25461  1.0000
  H   H13       1.0  0.11424  0.42519  0.06421  1.0000
  H   H14       1.0  0.12946  0.40324  0.14477  1.0000
  H   H15       1.0  0.22601  0.01659  0.11763  1.0000
  S   S3        1.0  0.03048  0.45032  0.11904  1.0000
  H   H16       1.0  0.17456  0.45662  0.05397  1.0000
  C   C17       1.0  0.18440  0.01302  0.12493  1.0000
  H   H17       1.0  0.22920  0.38268  0.05000  1.0000
  C   C18       1.0  0.17587  0.26098  0.03912  1.0000
  H   H18       1.0  0.16162  0.03170  0.10217  1.0000
  H   H19       1.0  0.40387  0.01452  0.05153  1.0000
  C   C19       1.0  0.19216  0.01190  0.19381  1.0000
  Fe  Fe2       1.0  0.09240  0.37690  0.67745  1.0000
  H   H20       1.0  0.05253  0.23369  0.57505  1.0000
  N   N3        1.0  0.11120  0.02818  0.50798  1.0000
  Fe  Fe3       1.0  0.11909  0.29636  0.61771  1.0000
  S   S4        1.0  0.09181  0.23161  0.65320  1.0000
  S   S5        1.0  0.14593  0.28648  0.55761  1.0000
  Fe  Fe4       1.0  0.02474  0.28408  0.66583  1.0000
  Fe  Fe5       1.0  0.29526  0.04420  0.48920  1.0000
  S   S6        1.0  0.04990  0.34673  0.62712  1.0000
  S   S7        1.0  0.16408  0.33114  0.66464  1.0000
  S   S8        1.0  0.29174  0.09254  0.54173  1.0000
  C   C20       1.0  0.18630  0.23255  0.55263  1.0000
  C   C21       1.0  0.19837  0.21323  0.51662  1.0000
  C   C22       1.0  0.23060  0.16997  0.51269  1.0000
  C   C23       1.0  0.25113  0.14646  0.54485  1.0000
  C   C24       1.0  0.23915  0.16598  0.58071  1.0000
  C   C25       1.0  0.20653  0.20865  0.58463  1.0000
  H   H21       1.0  0.18287  0.23177  0.49178  1.0000
  H   H22       1.0  0.23998  0.15526  0.48490  1.0000
  H   H23       1.0  0.25507  0.14801  0.60566  1.0000
  H   H24       1.0  0.19780  0.22350  0.61250  1.0000
  H   H25       1.0  0.50765  0.15291  0.46107  1.0000
  H   H26       1.0  0.16934  0.08408  0.51614  1.0000
  C   C26       1.0  0.48593  0.12026  0.56601  1.0000
  H   H27       1.0  0.02643  0.25480  0.50966  1.0000
  H   H28       1.0  0.22118  0.44260  0.58473  1.0000
  C   C27       1.0  0.02258  0.21201  0.56130  1.0000
  N   N4        1.0  0.45287  0.13181  0.50322  1.0000
  H   H29       1.0  0.47966  0.10966  0.59524  1.0000
  C   C28       1.0  0.02499  0.50623  0.65830  1.0000
  S   S9        1.0  0.30878  0.06924  0.42953  1.0000
  H   H30       1.0  0.40716  0.10698  0.54976  1.0000
  C   C29       1.0  0.41039  0.12711  0.47628  1.0000
  H   H31       1.0  0.12050  0.07769  0.46033  1.0000
  C   C30       1.0  0.14686  0.05411  0.52883  1.0000
  H   H32       1.0  0.41565  0.15229  0.45143  1.0000
  C   C31       1.0  0.44508  0.11893  0.54019  1.0000
  H   H33       1.0  0.18933  0.43124  0.62948  1.0000
  C   C32       1.0  0.50088  0.14527  0.49078  1.0000
  H   H34       1.0  0.18504  0.06146  0.58277  1.0000
  C   C33       1.0  0.15583  0.04151  0.56664  1.0000
  C   C34       1.0  0.51066  0.02194  0.46492  1.0000
  H   H35       1.0  0.37272  0.13740  0.48965  1.0000
  C   C35       1.0  0.18568  0.42787  0.59825  1.0000
  H   H36       1.0  0.40885  0.08719  0.46606  1.0000
  C   C36       1.0  0.50504  0.03649  0.42715  1.0000
  H   H37       1.0  0.18282  0.38665  0.59119  1.0000
  H   H38       1.0  0.06065  0.04395  0.46196  1.0000
  S   S10       1.0  0.44663  0.02725  0.40218  1.0000
  C   C37       1.0  0.10271  0.04081  0.46810  1.0000
  C   C38       1.0  0.06025  0.46192  0.55135  1.0000
  N   N5        1.0  0.14040  0.45692  0.58537  1.0000
  H   H39       1.0  0.10725  0.39423  0.55580  1.0000
  C   C39       1.0  0.10360  0.43420  0.56352  1.0000
  H   H40       1.0  0.03055  0.44349  0.53479  1.0000
  S   S11       1.0  0.11009  0.45945  0.69125  1.0000
  C   C40       1.0  0.13578  0.50727  0.59502  1.0000
  S   S12       1.0  0.19127  0.23752  0.74100  1.0000
  Fe  Fe6       1.0  0.35983  0.08445  0.93269  1.0000
  C   C41       1.0  0.49858  0.06887  0.96924  1.0000
  S   S13       1.0  0.43808  0.07075  0.90489  1.0000
  Fe  Fe7       1.0  0.28259  0.15614  0.97234  1.0000
  S   S14       1.0  0.22189  0.09659  0.97540  1.0000
  S   S15       1.0  0.25578  0.23365  0.99183  1.0000
  S   S16       1.0  0.06133  0.31848  0.71793  1.0000
  Fe  Fe8       1.0  0.24389  0.07991  0.91514  1.0000
  S   S17       1.0  0.17719  0.07554  0.87345  1.0000
  S   S18       1.0  0.34650  0.10525  0.99346  1.0000
  S   S19       1.0  0.30193  0.14241  0.91146  1.0000
  C   C42       1.0  0.18559  0.18898  0.77515  1.0000
  C   C43       1.0  0.23019  0.17458  0.79499  1.0000
  C   C44       1.0  0.22781  0.13917  0.82447  1.0000
  C   C45       1.0  0.18069  0.11793  0.83479  1.0000
  C   C46       1.0  0.13592  0.13139  0.81449  1.0000
  C   C47       1.0  0.13830  0.16696  0.78470  1.0000
  H   H41       1.0  0.26694  0.19107  0.78755  1.0000
  H   H42       1.0  0.26283  0.12764  0.83867  1.0000
  H   H43       1.0  0.09928  0.11490  0.82210  1.0000
  H   H44       1.0  0.10367  0.17786  0.76954  1.0000
  C   C48       1.0  0.13436  0.24956  0.86032  1.0000
  H   H45       1.0  0.15885  0.22397  0.94680  1.0000
  C   C49       1.0  0.15402  0.20396  0.91932  1.0000
  C   C50       1.0  0.23455  0.28540  0.85662  1.0000
  C   C51       1.0  0.19957  0.29798  0.82810  1.0000
  H   H46       1.0  0.17891  0.16926  0.91920  1.0000
  C   C52       1.0  0.14901  0.28047  0.83011  1.0000
  H   H47       1.0  0.11337  0.19130  0.91701  1.0000
  H   H48       1.0  0.09558  0.23447  0.86077  1.0000
  H   H49       1.0  0.46555  0.08476  0.98407  1.0000
  H   H50       1.0  0.27415  0.29817  0.85500  1.0000
  H   H51       1.0  0.24575  0.24518  0.90879  1.0000
  H   H52       1.0  0.21190  0.31984  0.80375  1.0000
  H   H53       1.0  0.12222  0.28864  0.80728  1.0000
  N   N6        1.0  0.16900  0.23722  0.88809  1.0000
  C   C53       1.0  0.49488  0.05736  0.93076  1.0000
  C   C54       1.0  0.21839  0.25506  0.88673  1.0000
  Fe  Fe9       1.0  0.28667  0.04403  0.99152  1.0000
  H   H54       1.0  0.16715  0.29069  0.01894  1.0000
  C   C55       1.0  0.21693  0.22691  0.03224  1.0000
  S   S20       1.0  0.30301  0.02012  0.93164  1.0000
  H   H55       1.0  0.06695  0.04654  0.90052  1.0000
  H   H56       1.0  0.51451  0.17603  0.92200  1.0000
  C   C56       1.0  0.03963  0.02970  0.88099  1.0000
  Fe  Fe10      1.0  0.13059  0.27068  0.70180  1.0000
  S   S21       1.0  0.07668  0.65292  0.21136  1.0000
  Fe  Fe11      1.0  0.14286  0.83033  0.19641  1.0000
  S   S22       1.0  0.16511  0.75937  0.16411  1.0000
  S   S23       1.0  0.20785  0.86843  0.22790  1.0000
  C   C57       1.0  0.04039  0.90905  0.05667  1.0000
  C   C58       1.0  0.24630  0.91370  0.07892  1.0000
  Fe  Fe12      1.0  0.08836  0.72954  0.18334  1.0000
  H   H57       1.0  0.10854  0.96543  0.32370  1.0000
  Fe  Fe13      1.0  0.12058  0.79457  0.11629  1.0000
  S   S24       1.0  0.28835  0.99522  0.04366  1.0000
  S   S25       1.0  0.06868  0.79880  0.21878  1.0000
  S   S26       1.0  0.10498  0.86778  0.14688  1.0000
  C   C59       1.0  0.19067  0.96859  0.33341  1.0000
  C   C60       1.0  0.14630  0.95328  0.31378  1.0000
  C   C61       1.0  0.15063  0.92214  0.28138  1.0000
  C   C62       1.0  0.19949  0.90685  0.26833  1.0000
  C   C63       1.0  0.24365  0.92261  0.28777  1.0000
  C   C64       1.0  0.23928  0.95318  0.32020  1.0000
  S   S27       1.0  0.14196  0.80492  0.05526  1.0000
  H   H58       1.0  0.11635  0.91036  0.26640  1.0000
  H   H59       1.0  0.28156  0.91116  0.27768  1.0000
  Fe  Fe14      1.0  0.03268  0.82957  0.16550  1.0000
  H   H60       1.0  0.02435  0.95889  0.10355  1.0000
  C   C65       1.0  0.05459  0.55137  0.20465  1.0000
  H   H61       1.0  0.17094  0.79625  0.29351  1.0000
  C   C66       1.0  0.06779  0.59585  0.14578  1.0000
  H   H62       1.0  0.21261  0.97558  0.19166  1.0000
  C   C67       1.0  0.05703  0.55064  0.12592  1.0000
  H   H63       1.0  0.21227  0.85035  0.10795  1.0000
  H   H64       1.0  0.05795  0.55057  0.09535  1.0000
  H   H65       1.0  0.27374  0.96583  0.33440  1.0000
  C   C68       1.0  0.21365  0.87173  0.08190  1.0000
  H   H66       1.0  0.26985  0.92451  0.10280  1.0000
  S   S28       1.0  0.04589  0.75769  0.13228  1.0000
  H   H67       1.0  0.13337  0.84313  0.34794  1.0000
  C   C69       1.0  0.19462  0.80490  0.31796  1.0000
  H   H68       1.0  0.07691  0.63029  0.13057  1.0000
  H   H69       1.0  0.07458  0.89223  0.06935  1.0000
  C   C70       1.0  0.17370  0.83163  0.34876  1.0000
  C   C71       1.0  0.18379  0.85680  0.05102  1.0000
  H   H70       1.0  0.05344  0.55151  0.23522  1.0000
  C   C72       1.0  0.24692  0.79162  0.31800  1.0000
  C   C73       1.0  0.06659  0.59635  0.18526  1.0000
  H   H71       1.0  0.26384  0.77247  0.29364  1.0000
  H   H72       1.0  0.39247  0.94885  0.06307  1.0000
  H   H73       1.0  0.17430  0.97195  0.12501  1.0000
  C   C74       1.0  0.24824  0.94183  0.04543  1.0000
  C   C75       1.0  0.27729  0.80372  0.34924  1.0000
  H   H74       1.0  0.45302  0.97780  0.07534  1.0000
  C   C76       1.0  0.42233  0.97613  0.05351  1.0000
  H   H75       1.0  0.31798  0.79340  0.34972  1.0000
  H   H76       1.0  0.12957  0.80173  0.56979  1.0000
  S   S29       1.0  0.23429  0.98895  0.47285  1.0000
  S   S30       1.0  0.12830  0.87813  0.63065  1.0000
  S   S31       1.0  0.05755  0.76734  0.68795  1.0000
  Fe  Fe15      1.0  0.05852  0.83110  0.64536  1.0000
  H   H77       1.0  0.20941  0.90193  0.42097  1.0000
  Fe  Fe16      1.0  0.29823  0.93164  0.46865  1.0000
  H   H78       1.0  0.05750  0.96734  0.50685  1.0000
  S   S32       1.0  0.27155  0.85381  0.48594  1.0000
  C   C77       1.0  0.06165  0.60471  0.67269  1.0000
  C   C78       1.0  0.09351  0.53636  0.58268  1.0000
  S   S33       1.0  0.31629  0.94726  0.40784  1.0000
  H   H79       1.0  0.27857  0.83872  0.40420  1.0000
  H   H80       1.0  0.07626  0.64250  0.67805  1.0000
  H   H81       1.0  0.14603  0.89373  0.40284  1.0000
  H   H82       1.0  0.08950  0.57607  0.59099  1.0000
  H   H83       1.0  0.17385  0.84642  0.43460  1.0000
  C   C79       1.0  0.25491  0.82980  0.37981  1.0000
  C   C80       1.0  0.16773  0.86870  0.59048  1.0000
  C   C81       1.0  0.20754  0.90334  0.58394  1.0000
  C   C82       1.0  0.23878  0.89906  0.55170  1.0000
  C   C83       1.0  0.23175  0.85894  0.52629  1.0000
  C   C84       1.0  0.19255  0.82351  0.53300  1.0000
  C   C85       1.0  0.16007  0.82874  0.56486  1.0000
  H   H84       1.0  0.21440  0.93373  0.60396  1.0000
  H   H85       1.0  0.26920  0.92625  0.54700  1.0000
  H   H86       1.0  0.18704  0.79231  0.51346  1.0000
  C   C86       1.0  0.08451  0.98888  0.52371  1.0000
  C   C87       1.0  0.09214  0.97553  0.56154  1.0000
  C   C88       1.0  0.18189  0.87280  0.41086  1.0000
  S   S34       1.0  0.18483  0.00730  0.37404  1.0000
  Fe  Fe17      1.0  0.37014  0.00744  0.42981  1.0000
  H   H87       1.0  0.02151  0.53523  0.55239  1.0000
  H   H88       1.0  0.07145  0.94391  0.57395  1.0000
  C   C89       1.0  0.08965  0.56157  0.68488  1.0000
  S   S35       1.0  0.35869  0.98511  0.49040  1.0000
  C   C90       1.0  0.07169  0.51221  0.67749  1.0000
  H   H89       1.0  0.13492  0.99137  0.61227  1.0000
  Fe  Fe18      1.0  0.25421  0.00690  0.41283  1.0000
  N   N7        1.0  0.20407  0.84451  0.37884  1.0000
  H   H90       1.0  0.16430  0.52490  0.61313  1.0000
  C   C91       1.0  0.12788  0.00224  0.58312  1.0000
  H   H91       1.0  0.47901  0.00386  0.47941  1.0000
  H   H92       1.0  0.12012  0.01078  0.44967  1.0000
  H   H93       1.0  0.12581  0.56642  0.69969  1.0000
  C   C92       1.0  0.05528  0.51334  0.56105  1.0000
  H   H94       1.0  0.04507  0.86174  0.00703  1.0000
  H   H95       1.0  0.16327  0.87286  0.99326  1.0000
  H   H96       1.0  0.21970  0.94877  0.98852  1.0000
  H   H97       1.0  0.49427  0.92292  0.91763  1.0000
  C   C93       1.0  0.51304  0.93417  0.97637  1.0000
  H   H98       1.0  0.02940  0.71649  0.76389  1.0000
  C   C94       1.0  0.21823  0.92723  0.01449  1.0000
  C   C95       1.0  0.18634  0.88435  0.01720  1.0000
  C   C96       1.0  0.47958  0.93242  0.94554  1.0000
  C   C97       1.0  0.02382  0.89202  0.02144  1.0000
  N   N8        1.0  0.44252  0.96054  0.01646  1.0000
  C   C98       1.0  0.40939  0.95835  0.98647  1.0000
  H   H99       1.0  0.09898  0.00131  0.84374  1.0000
  H   H100      1.0  0.40133  0.94458  0.92657  1.0000
  C   C99       1.0  0.05759  0.00413  0.84867  1.0000
  H   H101      1.0  0.36879  0.96771  0.99025  1.0000
  C   C100      1.0  0.04317  0.95400  0.79110  1.0000
  H   H102      1.0  0.02408  0.65415  0.78516  1.0000
  N   N9        1.0  0.02357  0.98309  0.82368  1.0000
  H   H103      1.0  0.07800  0.97210  0.77888  1.0000
  C   C101      1.0  0.42743  0.94463  0.95054  1.0000
  H   H104      1.0  0.05316  0.91446  0.79990  1.0000
  C   C102      1.0  0.49379  0.94859  0.01184  1.0000
  Fe  Fe19      1.0  0.94111  0.28156  0.13507  1.0000
  S   S36       1.0  0.98420  0.23507  0.17776  1.0000
  S   S37       1.0  0.86874  0.24815  0.11036  1.0000
  N   N10       1.0  0.80100  0.23170  0.21854  1.0000
  H   H105      1.0  0.78507  0.20850  0.16232  1.0000
  Fe  Fe20      1.0  0.98259  0.30641  0.21248  1.0000
  S   S38       1.0  0.96223  0.30789  0.27462  1.0000
  H   H106      1.0  0.75442  0.18755  0.25581  1.0000
  S   S39       1.0  0.93495  0.35183  0.17131  1.0000
  S   S40       1.0  0.80753  0.14399  0.33848  1.0000
  H   H107      1.0  0.84913  0.28224  0.18791  1.0000
  C   C103      1.0  0.92487  0.25829  0.29380  1.0000
  C   C104      1.0  0.91136  0.21578  0.27218  1.0000
  C   C105      1.0  0.87756  0.17932  0.28695  1.0000
  C   C106      1.0  0.85684  0.18516  0.32339  1.0000
  C   C107      1.0  0.87191  0.22657  0.34560  1.0000
  C   C108      1.0  0.90586  0.26297  0.33083  1.0000
  H   H108      1.0  0.92596  0.21147  0.24381  1.0000
  H   H109      1.0  0.86627  0.14723  0.26972  1.0000
  H   H110      1.0  0.85252  0.34623  0.23941  1.0000
  H   H111      1.0  0.91623  0.29565  0.34779  1.0000
  H   H112      1.0  0.78248  0.15775  0.19661  1.0000
  C   C109      1.0  0.83801  0.17296  0.06171  1.0000
  H   H113      1.0  0.80530  0.33079  0.29939  1.0000
  C   C110      1.0  0.87987  0.19990  0.07655  1.0000
  H   H114      1.0  0.79923  0.18179  0.07130  1.0000
  C   C111      1.0  0.82756  0.27593  0.21372  1.0000
  C   C112      1.0  0.77436  0.25925  0.28049  1.0000
  S   S41       1.0  0.01239  0.30754  0.10499  1.0000
  C   C113      1.0  0.80285  0.19309  0.18853  1.0000
  C   C114      1.0  0.92996  0.18824  0.06414  1.0000
  H   H115      1.0  0.84373  0.18265  0.18209  1.0000
  C   C115      1.0  0.80246  0.30388  0.27617  1.0000
  H   H116      1.0  0.96246  0.20872  0.07551  1.0000
  C   C116      1.0  0.77411  0.22326  0.25124  1.0000
  H   H117      1.0  0.75542  0.25105  0.30715  1.0000
  C   C117      1.0  0.82901  0.31252  0.24251  1.0000
  Fe  Fe21      1.0  0.01069  0.37413  0.14544  1.0000
  H   H118      1.0  0.95708  0.04604  0.07223  1.0000
  C   C118      1.0  0.84614  0.13478  0.03431  1.0000
  C   C119      1.0  0.93803  0.15054  0.03643  1.0000
  Fe  Fe22      1.0  0.84479  0.08035  0.46845  1.0000
  S   S42       1.0  0.79064  0.11680  0.51001  1.0000
  Fe  Fe23      1.0  0.79745  0.13664  0.40172  1.0000
  S   S43       1.0  0.73868  0.17806  0.43797  1.0000
  Fe  Fe24      1.0  0.80524  0.18850  0.47816  1.0000
  S   S44       1.0  0.82926  0.26215  0.50533  1.0000
  Fe  Fe25      1.0  0.72864  0.10218  0.46669  1.0000
  S   S45       1.0  0.65595  0.06696  0.49139  1.0000
  S   S46       1.0  0.86412  0.15316  0.43950  1.0000
  S   S47       1.0  0.78248  0.05975  0.42738  1.0000
  C   C120      1.0  0.96851  0.19642  0.50725  1.0000
  C   C121      1.0  0.59910  0.05399  0.46546  1.0000
  C   C122      1.0  0.59355  0.06842  0.42771  1.0000
  C   C123      1.0  0.54250  0.14731  0.51587  1.0000
  C   C124      1.0  0.53494  0.13449  0.55366  1.0000
  H   H119      1.0  0.93499  0.11099  0.61491  1.0000
  C   C125      1.0  0.86065  0.25791  0.54934  1.0000
  C   C126      1.0  0.89800  0.29397  0.55874  1.0000
  C   C127      1.0  0.92435  0.29098  0.59332  1.0000
  C   C128      1.0  0.91279  0.25254  0.61913  1.0000
  C   C129      1.0  0.87428  0.21734  0.61021  1.0000
  C   C130      1.0  0.84875  0.21956  0.57519  1.0000
  H   H120      1.0  0.90685  0.32409  0.53907  1.0000
  H   H121      1.0  0.95284  0.31906  0.60020  1.0000
  H   H122      1.0  0.86447  0.18804  0.63031  1.0000
  H   H123      1.0  0.81904  0.19242  0.56862  1.0000
  H   H124      1.0  0.91398  0.13610  0.51372  1.0000
  C   C131      1.0  0.54680  0.05943  0.40862  1.0000
  S   S48       1.0  0.94673  0.24663  0.66214  1.0000
  H   H125      1.0  0.58085  0.15675  0.50571  1.0000
  H   H126      1.0  0.85589  0.23168  0.37362  1.0000
  H   H127      1.0  0.62518  0.08662  0.41321  1.0000
  H   H128      1.0  0.89131  0.10403  0.57634  1.0000
  H   H129      1.0  0.95125  0.06806  0.57627  1.0000
  C   C132      1.0  0.94463  0.15720  0.52718  1.0000
  H   H130      1.0  0.54286  0.07057  0.37935  1.0000
  H   H131      1.0  0.56732  0.13473  0.57309  1.0000
  C   C133      1.0  0.55761  0.03038  0.48388  1.0000
  N   N11       1.0  0.95867  0.14649  0.56355  1.0000
  C   C134      1.0  0.93299  0.10523  0.58380  1.0000
  C   C135      1.0  0.99749  0.17298  0.58058  1.0000
  S   S49       1.0  0.91187  0.02929  0.48436  1.0000
  H   H132      1.0  0.95583  0.20605  0.47893  1.0000
  H   H133      1.0  0.83189  0.02766  0.54192  1.0000
  C   C136      1.0  0.00780  0.22391  0.52451  1.0000
  H   H134      1.0  0.01079  0.46840  0.65251  1.0000
  H   H135      1.0  0.00820  0.16515  0.60963  1.0000
  H   H136      1.0  0.56154  0.01910  0.51310  1.0000
  S   S50       1.0  0.90749  0.07718  0.98649  1.0000
  H   H137      1.0  0.54852  0.07102  0.01794  1.0000
  H   H138      1.0  0.70889  0.12789  0.96975  1.0000
  N   N12       1.0  0.64092  0.15380  0.94122  1.0000
  H   H139      1.0  0.69587  0.19568  0.97277  1.0000
  H   H140      1.0  0.81369  0.11429  0.02288  1.0000
  C   C137      1.0  0.58920  0.04151  0.96920  1.0000
  C   C138      1.0  0.54566  0.06119  0.98830  1.0000
  C   C139      1.0  0.55488  0.16626  0.91720  1.0000
  Fe  Fe26      1.0  0.83895  0.02970  0.97084  1.0000
  C   C140      1.0  0.67797  0.15746  0.97238  1.0000
  H   H141      1.0  0.69710  0.12570  0.90193  1.0000
  C   C141      1.0  0.58523  0.02892  0.93094  1.0000
  C   C142      1.0  0.62247  0.13422  0.87625  1.0000
  C   C143      1.0  0.65722  0.13733  0.90640  1.0000
  S   S51       1.0  0.77530  0.04703  0.92965  1.0000
  S   S52       1.0  0.64788  0.03505  0.99413  1.0000
  H   H142      1.0  0.97681  0.14223  0.02654  1.0000
  H   H143      1.0  0.63523  0.11980  0.84898  1.0000
  C   C144      1.0  0.89617  0.12389  0.02139  1.0000
  C   C145      1.0  0.57095  0.14868  0.88180  1.0000
  H   H144      1.0  0.65887  0.15027  1.00000  1.0000
  C   C146      1.0  0.59063  0.16875  0.94674  1.0000
  C   C147      1.0  0.53823  0.03699  0.91178  1.0000
  H   H145      1.0  0.54308  0.14494  0.85908  1.0000
  H   H146      1.0  0.97198  0.05238  0.91309  1.0000
  H   H147      1.0  0.53561  0.02799  0.88199  1.0000
  H   H148      1.0  0.61851  0.01365  0.91598  1.0000
  H   H149      1.0  0.57755  0.18136  0.97439  1.0000
  C   C148      1.0  0.98654  0.03309  0.88792  1.0000
  H   H150      1.0  0.91075  0.01349  0.86730  1.0000
  C   C149      1.0  0.94613  0.71268  0.20600  1.0000
  H   H151      1.0  0.87827  0.77954  0.14041  1.0000
  H   H152      1.0  0.91798  0.79029  0.20367  1.0000
  C   C150      1.0  0.94924  0.66610  0.18680  1.0000
  C   C151      1.0  0.94133  0.83624  0.09088  1.0000
  C   C152      1.0  0.92529  0.87100  0.11863  1.0000
  C   C153      1.0  0.88071  0.90063  0.11255  1.0000
  C   C154      1.0  0.85234  0.89526  0.07895  1.0000
  N   N13       1.0  0.92849  0.66089  0.15150  1.0000
  H   H153      1.0  0.86787  0.92753  0.13393  1.0000
  S   S53       1.0  0.95936  0.87661  0.16146  1.0000
  H   H154      1.0  0.88794  0.69746  0.10643  1.0000
  C   C155      1.0  0.86764  0.85905  0.05192  1.0000
  H   H155      1.0  0.81766  0.91782  0.07458  1.0000
  C   C156      1.0  0.93483  0.61284  0.13065  1.0000
  H   H156      1.0  0.89800  0.60176  0.11702  1.0000
  C   C157      1.0  0.92038  0.75372  0.18928  1.0000
  N   N14       1.0  0.96852  0.96771  0.05972  1.0000
  H   H157      1.0  0.96901  0.63438  0.20022  1.0000
  C   C158      1.0  0.90365  0.70113  0.13470  1.0000
  C   C159      1.0  0.89841  0.74780  0.15361  1.0000
  C   C160      1.0  0.91200  0.82941  0.05809  1.0000
  H   H158      1.0  0.96509  0.61707  0.10860  1.0000
  H   H159      1.0  0.97612  0.81425  0.09455  1.0000
  H   H160      1.0  0.94691  0.58098  0.14948  1.0000
  H   H161      1.0  0.92426  0.80172  0.03709  1.0000
  H   H162      1.0  0.96434  0.71693  0.23342  1.0000
  H   H163      1.0  0.94109  0.00288  0.11048  1.0000
  C   C161      1.0  0.94013  0.00858  0.07938  1.0000
  C   C162      1.0  0.01202  0.94699  0.07565  1.0000
  H   H164      1.0  0.89874  0.00941  0.07091  1.0000
  H   H165      1.0  0.52044  0.95106  0.03537  1.0000
  Fe  Fe27      1.0  0.94171  0.83705  0.64048  1.0000
  C   C163      1.0  0.71810  0.91492  0.56282  1.0000
  S   S54       1.0  0.87159  0.87942  0.61940  1.0000
  C   C164      1.0  0.81811  0.92255  0.46783  1.0000
  H   H166      1.0  0.96102  0.54451  0.63105  1.0000
  C   C165      1.0  0.79192  0.88353  0.52773  1.0000
  S   S55       1.0  0.93090  0.77424  0.68216  1.0000
  C   C166      1.0  0.70916  0.95093  0.53461  1.0000
  C   C167      1.0  0.75958  0.88082  0.55935  1.0000
  H   H167      1.0  0.76789  0.85356  0.58161  1.0000
  H   H168      1.0  0.81781  0.96971  0.59578  1.0000
  C   C168      1.0  0.99694  0.54940  0.64615  1.0000
  C   C169      1.0  0.74238  0.95273  0.50344  1.0000
  N   N15       1.0  0.78362  0.91981  0.50064  1.0000
  C   C170      1.0  0.88628  0.92458  0.58486  1.0000
  C   C171      1.0  0.93003  0.91848  0.56204  1.0000
  C   C172      1.0  0.93795  0.95141  0.53154  1.0000
  C   C173      1.0  0.90249  0.99070  0.52402  1.0000
  H   H169      1.0  0.82473  0.96283  0.45978  1.0000
  C   C174      1.0  0.85158  0.96478  0.57800  1.0000
  H   H170      1.0  0.95675  0.88730  0.56707  1.0000
  H   H171      1.0  0.97059  0.94528  0.51301  1.0000
  H   H172      1.0  0.85689  0.90606  0.47419  1.0000
  C   C175      1.0  0.85953  0.99765  0.54749  1.0000
  H   H173      1.0  0.67702  0.97771  0.53693  1.0000
  S   S56       1.0  0.97976  0.65154  0.63593  1.0000
  H   H174      1.0  0.69327  0.91378  0.58752  1.0000
  Fe  Fe28      1.0  0.99550  0.73424  0.65108  1.0000
  S   S57       1.0  0.00133  0.79481  0.60609  1.0000
  S   S58       1.0  0.99881  0.87825  0.67621  1.0000
  H   H175      1.0  0.80104  0.90204  0.44349  1.0000
  H   H176      1.0  0.82492  0.85777  0.52591  1.0000
  H   H177      1.0  0.73519  0.98110  0.48178  1.0000
  H   H178      1.0  0.89622  0.62570  0.69212  1.0000
  C   C176      1.0  0.01536  0.59871  0.65301  1.0000
  Fe  Fe29      1.0  0.72403  0.00471  0.97016  1.0000
  Fe  Fe30      1.0  0.79363  0.96928  0.90539  1.0000
  S   S59       1.0  0.73730  0.92816  0.94269  1.0000
  S   S60       1.0  0.80130  0.95737  0.84228  1.0000
  H   H179      1.0  0.96558  0.90007  0.97823  1.0000
  H   H180      1.0  0.91824  0.96864  0.01226  1.0000
  Fe  Fe31      1.0  0.80438  0.92124  0.98271  1.0000
  C   C177      1.0  0.94784  0.65449  0.73474  1.0000
  H   H181      1.0  0.83323  0.73788  0.76893  1.0000
  C   C178      1.0  0.86492  0.71354  0.75950  1.0000
  S   S61       1.0  0.86117  0.95608  0.94317  1.0000
  N   N16       1.0  0.95379  0.68687  0.76471  1.0000
  C   C179      1.0  0.85849  0.68039  0.72899  1.0000
  C   C180      1.0  0.91314  0.71632  0.77712  1.0000
  C   C181      1.0  0.90015  0.65057  0.71652  1.0000
  H   H182      1.0  0.90536  0.87947  0.74097  1.0000
  H   H183      1.0  0.83270  0.93181  0.76658  1.0000
  C   C182      1.0  0.93358  0.85732  0.79582  1.0000
  C   C183      1.0  0.92541  0.86108  0.83491  1.0000
  C   C184      1.0  0.88394  0.89023  0.84940  1.0000
  C   C185      1.0  0.85069  0.91645  0.82492  1.0000
  C   C186      1.0  0.85833  0.91183  0.78575  1.0000
  C   C187      1.0  0.89955  0.88225  0.77121  1.0000
  H   H184      1.0  0.95135  0.84160  0.85411  1.0000
  H   H185      1.0  0.87792  0.89247  0.87951  1.0000
  H   H186      1.0  0.01386  0.95148  0.76823  1.0000
  H   H187      1.0  0.94454  0.97003  0.81034  1.0000
  S   S62       1.0  0.83165  0.84925  0.01063  1.0000
  H   H188      1.0  0.98031  0.63209  0.72431  1.0000
  C   C188      1.0  0.95258  0.95202  0.02481  1.0000
  H   H189      1.0  0.91805  0.74297  0.80030  1.0000
  Fe  Fe32      1.0  0.99292  0.81224  0.71540  1.0000
  C   C189      1.0  0.97955  0.91357  0.00531  1.0000
  S   S63       1.0  0.98733  0.82232  0.77874  1.0000
  H   H190      1.0  0.82167  0.67860  0.71449  1.0000
  C   C190      1.0  0.97151  0.98661  0.83010  1.0000
  H   H191      1.0  0.55396  0.92605  0.97259  1.0000
  S   S64       1.0  0.78714  0.99392  0.01349  1.0000
  C   C191      1.0  0.00492  0.69198  0.78195  1.0000
  H   H192      1.0  0.00246  0.71011  0.81035  1.0000
  C   C192      1.0  0.95218  0.01143  0.86229  1.0000
