data_image0
_chemical_formula_structural       C2FeSCH3SH2FeHC2SCSCSCH2C2HC2FeCHCH4CH6CHNH2C2H11C2HCSH6C2HC2HCHCH4CFeHCHC2FeHFeH2SCHCSHC2HS3CSFeS2HCH3C2FeNH4CHC2HCHCH2CH3CH3CHCH4CH4CH3S2HCH2CSCHC2HCFeH2CFeH3CH2SCH2CHCH4SH3C5HCHNC2H2CH4CH2CH6CHCH2C2H4CH2CHSHC2HCHC2HCFeH2FeCHFeH3SH5SHCH2CH3CH2CH2CH2C3HC2HCH4NCH2C4HCH5CH5CH4CNH4CH4CSCNC2H2FeSCHCFeSH3CHCHCHC3HSHCH6CHCHC2H5C2HCHC2HC3H3FeNHC2HCSCHSHCH2FeH5CH6CHCH2SH2C2H7C3HCH3CHC2HCH3SC2HCH2CH2CNH2CHCHCHCHSH6CH5CH2CHCH5CSH3CS2CSCHFe2C3H2SH11CH2C2HCHNH3CH2CHCSCSH2NCHC2H4NC5H5CHCHC2HCH2CHSH3FeH4FeSH3CHCHCH2FeHSCSH2C5H2SHCSH6CHC3H2CNSC3HCHFeH5CSH7CHC3SH2SHFeHC
_chemical_formula_sum              "C216 Fe24 S48 H384 N12"
_cell_length_a       20.8196
_cell_length_b       17.9991
_cell_length_c       23.1545
_cell_angle_alpha    85.5873
_cell_angle_beta     86.6107
_cell_angle_gamma    66.9986

_space_group_name_H-M_alt    "P 1"
_space_group_IT_number       1

loop_
  _space_group_symop_operation_xyz
  'x, y, z'

loop_
  _atom_site_type_symbol
  _atom_site_label
  _atom_site_symmetry_multiplicity
  _atom_site_fract_x
  _atom_site_fract_y
  _atom_site_fract_z
  _atom_site_occupancy
  C   C1        1.0  0.42230  0.28364  0.89328  1.0000
  C   C2        1.0  0.24480  0.47592  0.90119  1.0000
  Fe  Fe1       1.0  0.18837  0.17583  0.94214  1.0000
  S   S1        1.0  0.43460  0.14779  0.96164  1.0000
  C   C3        1.0  0.02024  0.19365  0.76211  1.0000
  H   H1        1.0  0.41382  0.39108  0.84041  1.0000
  H   H2        1.0  0.38744  0.26948  0.86742  1.0000
  H   H3        1.0  0.01910  0.10114  0.97705  1.0000
  S   S2        1.0  0.23760  0.26529  0.91942  1.0000
  H   H4        1.0  0.28005  0.44871  0.86400  1.0000
  H   H5        1.0  0.32792  0.46537  0.95525  1.0000
  Fe  Fe2       1.0  0.22915  0.24051  0.82721  1.0000
  H   H6        1.0  0.07687  0.30706  0.90819  1.0000
  C   C4        1.0  0.02474  0.26362  0.97749  1.0000
  C   C5        1.0  0.03884  0.50743  0.83175  1.0000
  S   S3        1.0  0.19750  0.33115  0.75116  1.0000
  C   C6        1.0  0.04233  0.26477  0.74827  1.0000
  S   S4        1.0  0.33439  0.13915  0.82448  1.0000
  C   C7        1.0  0.02727  0.30958  0.92656  1.0000
  S   S5        1.0  0.17305  0.15780  0.85000  1.0000
  C   C8        1.0  0.45271  0.23354  0.94181  1.0000
  H   H7        1.0  0.19902  0.45888  0.90092  1.0000
  H   H8        1.0  0.02966  0.30423  0.78534  1.0000
  C   C9        1.0  0.48169  0.37143  0.91162  1.0000
  C   C10       1.0  0.09796  0.43680  0.82168  1.0000
  H   H9        1.0  0.12366  0.39664  0.85771  1.0000
  C   C11       1.0  0.43703  0.35250  0.87808  1.0000
  C   C12       1.0  0.12371  0.41879  0.76509  1.0000
  Fe  Fe3       1.0  0.33832  0.15654  0.91849  1.0000
  C   C13       1.0  0.28419  0.44441  0.95728  1.0000
  H   H10       1.0  0.30605  0.37755  0.95834  1.0000
  C   C14       1.0  0.00466  0.55912  0.78507  1.0000
  H   H11       1.0  0.05213  0.15610  0.79816  1.0000
  H   H12       1.0  0.28594  0.51963  0.77165  1.0000
  H   H13       1.0  0.01846  0.52033  0.87546  1.0000
  H   H14       1.0  0.22686  0.54277  0.89575  1.0000
  C   C15       1.0  0.23561  0.53424  0.75048  1.0000
  H   H15       1.0  0.47162  0.08353  0.76294  1.0000
  H   H16       1.0  0.47989  0.26021  0.77017  1.0000
  H   H17       1.0  0.19372  0.54366  0.78456  1.0000
  H   H18       1.0  0.01052  0.43143  0.12607  1.0000
  H   H19       1.0  0.46612  0.38578  0.17472  1.0000
  H   H20       1.0  0.20916  0.54030  0.11691  1.0000
  C   C16       1.0  0.21130  0.47752  0.11523  1.0000
  H   H21       1.0  0.34539  0.18454  0.10485  1.0000
  N   N1        1.0  0.26327  0.43329  0.06880  1.0000
  H   H22       1.0  0.21000  0.32336  0.14134  1.0000
  H   H23       1.0  0.28496  0.17969  0.16274  1.0000
  C   C17       1.0  0.37104  0.40038  0.13251  1.0000
  C   C18       1.0  0.28988  0.21019  0.12012  1.0000
  H   H24       1.0  0.23649  0.33789  0.03834  1.0000
  H   H25       1.0  0.36932  0.41509  0.04074  1.0000
  H   H26       1.0  0.13432  0.43308  0.08383  1.0000
  H   H27       1.0  0.38773  0.33391  0.13221  1.0000
  H   H28       1.0  0.33885  0.42254  0.17221  1.0000
  H   H29       1.0  0.11516  0.47109  0.15415  1.0000
  H   H30       1.0  0.04113  0.40399  0.22358  1.0000
  H   H31       1.0  0.29526  0.31034  0.16132  1.0000
  H   H32       1.0  0.22427  0.54193  0.01158  1.0000
  H   H33       1.0  0.42461  0.48267  0.13647  1.0000
  H   H34       1.0  0.08034  0.15653  0.15360  1.0000
  C   C19       1.0  0.33150  0.44169  0.07684  1.0000
  C   C20       1.0  0.13572  0.48139  0.11013  1.0000
  H   H35       1.0  0.48601  0.12145  0.21719  1.0000
  C   C21       1.0  0.27388  0.34521  0.06774  1.0000
  S   S6        1.0  0.10232  0.19844  0.00963  1.0000
  H   H36       1.0  0.03453  0.55926  0.07715  1.0000
  H   H37       1.0  0.32644  0.30982  0.04837  1.0000
  H   H38       1.0  0.06395  0.28390  0.19433  1.0000
  H   H39       1.0  0.25743  0.19785  0.08866  1.0000
  H   H40       1.0  0.32281  0.50700  0.07558  1.0000
  H   H41       1.0  0.02133  0.17245  0.21587  1.0000
  C   C22       1.0  0.02778  0.19515  0.17077  1.0000
  C   C23       1.0  0.43747  0.41675  0.13522  1.0000
  H   H42       1.0  0.22878  0.44992  0.15898  1.0000
  C   C24       1.0  0.26555  0.30113  0.12642  1.0000
  C   C25       1.0  0.02082  0.28277  0.16903  1.0000
  H   H43       1.0  0.47226  0.39277  0.09703  1.0000
  C   C26       1.0  0.23588  0.47591  0.01114  1.0000
  H   H44       1.0  0.43515  0.07429  0.15827  1.0000
  C   C27       1.0  0.08502  0.56317  0.08514  1.0000
  H   H45       1.0  0.18580  0.47078  0.00269  1.0000
  H   H46       1.0  0.02860  0.30080  0.12306  1.0000
  H   H47       1.0  0.38521  0.56685  0.00988  1.0000
  H   H48       1.0  0.39070  0.19326  0.41189  1.0000
  C   C28       1.0  0.36010  0.16147  0.39850  1.0000
  Fe  Fe4       1.0  0.41477  0.44073  0.38752  1.0000
  H   H49       1.0  0.13868  0.37201  0.35412  1.0000
  C   C29       1.0  0.13435  0.31251  0.36140  1.0000
  H   H50       1.0  0.08004  0.48400  0.28659  1.0000
  C   C30       1.0  0.28305  0.07637  0.36414  1.0000
  C   C31       1.0  0.16052  0.27524  0.42125  1.0000
  Fe  Fe5       1.0  0.26150  0.47256  0.40791  1.0000
  H   H51       1.0  0.34441  0.11782  0.48530  1.0000
  Fe  Fe6       1.0  0.31202  0.52067  0.29140  1.0000
  H   H52       1.0  0.06160  0.32895  0.46562  1.0000
  H   H53       1.0  0.07923  0.32016  0.35730  1.0000
  S   S7        1.0  0.24863  0.44707  0.31702  1.0000
  C   C32       1.0  0.11481  0.32829  0.46997  1.0000
  H   H54       1.0  0.30009  0.11841  0.27712  1.0000
  C   C33       1.0  0.02481  0.51639  0.30086  1.0000
  S   S8        1.0  0.37159  0.22415  0.28870  1.0000
  H   H55       1.0  0.21559  0.26870  0.42206  1.0000
  C   C34       1.0  0.34618  0.16332  0.33992  1.0000
  C   C35       1.0  0.33447  0.11813  0.43998  1.0000
  H   H56       1.0  0.44973  0.56535  0.34316  1.0000
  S   S9        1.0  0.10726  0.10817  0.35794  1.0000
  S   S10       1.0  0.41396  0.41424  0.29479  1.0000
  S   S11       1.0  0.31795  0.55362  0.38199  1.0000
  C   C36       1.0  0.29311  0.07884  0.42305  1.0000
  S   S12       1.0  0.04585  0.10846  0.49002  1.0000
  Fe  Fe7       1.0  0.35134  0.34241  0.32717  1.0000
  S   S13       1.0  0.17424  0.50492  0.47440  1.0000
  S   S14       1.0  0.35883  0.36141  0.42076  1.0000
  H   H57       1.0  0.16681  0.27230  0.32764  1.0000
  C   C37       1.0  0.30994  0.11824  0.32249  1.0000
  H   H58       1.0  0.15894  0.21429  0.42522  1.0000
  H   H59       1.0  0.11064  0.39133  0.45913  1.0000
  H   H60       1.0  0.01382  0.48642  0.34173  1.0000
  C   C38       1.0  0.03340  0.57082  0.46413  1.0000
  C   C39       1.0  0.09692  0.57324  0.44355  1.0000
  Fe  Fe8       1.0  0.00352  0.16179  0.40310  1.0000
  N   N2        1.0  0.13938  0.30200  0.53127  1.0000
  H   H61       1.0  0.22082  0.37004  0.59736  1.0000
  H   H62       1.0  0.03227  0.52728  0.49820  1.0000
  H   H63       1.0  0.07952  0.12845  0.62254  1.0000
  H   H64       1.0  0.33948  0.30836  0.55141  1.0000
  C   C40       1.0  0.13706  0.10998  0.62205  1.0000
  H   H65       1.0  0.21434  0.16050  0.60761  1.0000
  C   C41       1.0  0.12956  0.22454  0.54814  1.0000
  C   C42       1.0  0.32216  0.27568  0.58765  1.0000
  H   H66       1.0  0.34687  0.20962  0.58193  1.0000
  C   C43       1.0  0.09609  0.36819  0.57017  1.0000
  H   H67       1.0  0.24905  0.22796  0.51953  1.0000
  C   C44       1.0  0.15649  0.18311  0.60785  1.0000
  H   H68       1.0  0.11020  0.45802  0.67488  1.0000
  H   H69       1.0  0.47591  0.52224  0.57841  1.0000
  C   C45       1.0  0.24268  0.30434  0.58990  1.0000
  H   H70       1.0  0.24012  0.48200  0.72551  1.0000
  H   H71       1.0  0.22787  0.27289  0.62800  1.0000
  H   H72       1.0  0.15716  0.17896  0.51647  1.0000
  C   C46       1.0  0.02985  0.54036  0.72859  1.0000
  H   H73       1.0  0.03341  0.15741  0.72340  1.0000
  H   H74       1.0  0.15641  0.08210  0.66541  1.0000
  H   H75       1.0  0.22721  0.33183  0.49958  1.0000
  C   C47       1.0  0.09009  0.47125  0.71864  1.0000
  H   H76       1.0  0.09963  0.24193  0.74016  1.0000
  C   C48       1.0  0.21554  0.28978  0.53238  1.0000
  H   H77       1.0  0.13426  0.22514  0.64285  1.0000
  H   H78       1.0  0.01653  0.30062  0.70893  1.0000
  H   H79       1.0  0.11042  0.35119  0.61608  1.0000
  H   H80       1.0  0.33973  0.28808  0.62891  1.0000
  C   C49       1.0  0.01581  0.39449  0.56885  1.0000
  H   H81       1.0  0.07390  0.23367  0.54558  1.0000
  H   H82       1.0  0.10779  0.42296  0.55881  1.0000
  H   H83       1.0  0.99978  0.34371  0.58259  1.0000
  H   H84       1.0  0.07631  0.89455  0.78428  1.0000
  C   C50       1.0  0.16868  0.86486  0.89918  1.0000
  H   H85       1.0  0.06521  0.04294  0.91761  1.0000
  H   H86       1.0  0.34095  0.77021  0.80842  1.0000
  H   H87       1.0  0.00976  0.06118  0.82410  1.0000
  S   S15       1.0  0.01307  0.64955  0.94558  1.0000
  S   S16       1.0  0.16464  0.71635  0.93183  1.0000
  H   H88       1.0  0.10673  0.75603  0.75514  1.0000
  C   C51       1.0  0.25961  0.74775  0.85915  1.0000
  H   H89       1.0  0.46285  0.74523  0.96075  1.0000
  H   H90       1.0  0.29268  0.70588  0.98989  1.0000
  C   C52       1.0  0.19813  0.78136  0.89268  1.0000
  S   S17       1.0  0.31143  0.93839  0.81370  1.0000
  C   C53       1.0  0.26525  0.87974  0.84195  1.0000
  H   H91       1.0  0.35616  0.73455  0.94849  1.0000
  C   C54       1.0  0.34882  0.69597  0.98588  1.0000
  C   C55       1.0  0.46208  0.79388  0.98782  1.0000
  H   H92       1.0  0.18166  0.97804  0.88072  1.0000
  C   C56       1.0  0.20281  0.91398  0.87429  1.0000
  Fe  Fe9       1.0  0.27885  0.05798  0.85382  1.0000
  H   H93       1.0  0.46360  0.87234  0.91148  1.0000
  H   H94       1.0  0.12156  0.89071  0.92562  1.0000
  C   C57       1.0  0.29266  0.79694  0.83330  1.0000
  Fe  Fe10      1.0  0.04869  0.75229  0.93192  1.0000
  H   H95       1.0  0.16657  0.98965  0.98870  1.0000
  H   H96       1.0  0.28273  0.68315  0.85438  1.0000
  H   H97       1.0  0.35682  0.86734  0.96715  1.0000
  C   C58       1.0  0.38985  0.60775  0.97301  1.0000
  H   H98       1.0  0.36925  0.59359  0.93394  1.0000
  H   H99       1.0  0.47505  0.00304  0.81578  1.0000
  S   S18       1.0  0.28989  0.06851  0.94809  1.0000
  C   C59       1.0  0.49432  0.84546  0.95093  1.0000
  H   H100      1.0  0.44582  0.59665  0.96455  1.0000
  H   H101      1.0  0.16328  0.85532  0.75271  1.0000
  C   C60       1.0  0.01287  0.07219  0.93849  1.0000
  H   H102      1.0  0.49579  0.89473  0.97616  1.0000
  C   C61       1.0  0.49527  0.01728  0.77280  1.0000
  H   H103      1.0  0.26110  0.84739  0.99436  1.0000
  H   H104      1.0  0.14631  0.88140  0.15054  1.0000
  H   H105      1.0  0.23060  0.93442  0.10814  1.0000
  H   H106      1.0  0.49623  0.76483  0.02456  1.0000
  S   S19       1.0  0.28585  0.60165  0.21044  1.0000
  H   H107      1.0  0.38600  0.90157  0.02544  1.0000
  H   H108      1.0  0.46629  0.02226  0.06223  1.0000
  H   H109      1.0  0.03207  0.90854  0.11324  1.0000
  C   C62       1.0  0.43736  0.78160  0.20056  1.0000
  C   C63       1.0  0.37180  0.71675  0.04280  1.0000
  C   C64       1.0  0.20708  0.75748  0.17740  1.0000
  C   C65       1.0  0.23364  0.70221  0.22418  1.0000
  C   C66       1.0  0.16683  0.83875  0.18684  1.0000
  H   H110      1.0  0.04318  0.81801  0.22875  1.0000
  C   C67       1.0  0.45366  0.00804  0.15574  1.0000
  H   H111      1.0  0.00999  0.04273  0.06526  1.0000
  N   N3        1.0  0.34981  0.80580  0.05066  1.0000
  C   C68       1.0  0.16316  0.97598  0.03604  1.0000
  C   C69       1.0  0.08413  0.66055  0.22321  1.0000
  H   H112      1.0  0.11770  0.66612  0.18546  1.0000
  H   H113      1.0  0.34934  0.88190  0.11921  1.0000
  C   C70       1.0  0.43575  0.77012  0.13598  1.0000
  H   H114      1.0  0.32484  0.79965  0.14228  1.0000
  H   H115      1.0  0.03515  0.03502  0.13903  1.0000
  H   H116      1.0  0.03320  0.80116  0.15557  1.0000
  H   H117      1.0  0.08633  0.59804  0.22610  1.0000
  C   C71       1.0  0.00785  0.80683  0.19937  1.0000
  H   H118      1.0  0.10499  0.58234  0.04380  1.0000
  H   H119      1.0  0.47336  0.79292  0.11359  1.0000
  C   C72       1.0  0.44113  0.99232  0.09441  1.0000
  H   H120      1.0  0.42928  0.68441  0.04521  1.0000
  H   H121      1.0  0.34993  0.68840  0.07920  1.0000
  H   H122      1.0  0.45382  0.70418  0.13123  1.0000
  H   H123      1.0  0.21685  0.73655  0.13405  1.0000
  H   H124      1.0  0.40306  0.75587  0.22591  1.0000
  H   H125      1.0  0.41993  0.84663  0.20881  1.0000
  C   C73       1.0  0.36158  0.81712  0.11268  1.0000
  H   H126      1.0  0.42063  0.98647  0.18638  1.0000
  C   C74       1.0  0.38624  0.84569  0.00798  1.0000
  H   H127      1.0  0.46288  0.92655  0.08803  1.0000
  H   H128      1.0  0.24408  0.81116  0.06390  1.0000
  C   C75       1.0  0.27220  0.84643  0.04097  1.0000
  C   C76       1.0  0.23615  0.93437  0.06012  1.0000
  H   H129      1.0  0.13526  0.03377  0.05716  1.0000
  H   H130      1.0  0.38422  0.01770  0.08666  1.0000
  H   H131      1.0  0.13265  0.93740  0.04457  1.0000
  H   H132      1.0  0.26689  0.97090  0.04550  1.0000
  C   C77       1.0  0.00876  0.72154  0.21629  1.0000
  H   H133      1.0  0.07509  0.61083  0.11573  1.0000
  H   H134      1.0  0.49157  0.74967  0.21571  1.0000
  C   C78       1.0  0.15182  0.86461  0.24332  1.0000
  H   H135      1.0  0.39482  0.91812  0.48225  1.0000
  S   S20       1.0  0.12600  0.93699  0.42789  1.0000
  H   H136      1.0  0.28225  0.87883  0.44343  1.0000
  C   C79       1.0  0.17592  0.80875  0.29034  1.0000
  C   C80       1.0  0.09773  0.63085  0.39959  1.0000
  H   H137      1.0  0.19492  0.75821  0.44451  1.0000
  C   C81       1.0  0.20804  0.71280  0.48173  1.0000
  H   H138      1.0  0.36204  0.80200  0.33309  1.0000
  C   C82       1.0  0.21713  0.72762  0.28073  1.0000
  C   C83       1.0  0.38574  0.78078  0.45276  1.0000
  H   H139      1.0  0.10624  0.67040  0.26296  1.0000
  C   C84       1.0  0.03454  0.68652  0.37715  1.0000
  Fe  Fe11      1.0  0.07848  0.00373  0.34510  1.0000
  H   H140      1.0  0.47324  0.68805  0.31535  1.0000
  H   H141      1.0  0.26323  0.69675  0.49262  1.0000
  Fe  Fe12      1.0  0.14800  0.04582  0.44300  1.0000
  C   C85       1.0  0.33166  0.85251  0.41779  1.0000
  H   H142      1.0  0.29391  0.77723  0.37127  1.0000
  Fe  Fe13      1.0  0.02010  0.00382  0.46905  1.0000
  H   H143      1.0  0.23525  0.68502  0.31711  1.0000
  H   H144      1.0  0.36476  0.73249  0.45639  1.0000
  H   H145      1.0  0.35207  0.89995  0.40491  1.0000
  S   S21       1.0  0.10005  0.96619  0.25357  1.0000
  H   H146      1.0  0.20224  0.65802  0.46820  1.0000
  H   H147      1.0  0.01717  0.57872  0.30974  1.0000
  H   H148      1.0  0.43401  0.75805  0.42520  1.0000
  H   H149      1.0  0.25405  0.04274  0.35062  1.0000
  H   H150      1.0  0.44443  0.99093  0.37887  1.0000
  S   S22       1.0  0.25005  0.03860  0.47597  1.0000
  H   H151      1.0  0.45597  0.02040  0.26916  1.0000
  C   C86       1.0  0.31468  0.82524  0.36178  1.0000
  H   H152      1.0  0.47902  0.84104  0.47187  1.0000
  H   H153      1.0  0.27453  0.87741  0.33841  1.0000
  C   C87       1.0  0.48958  0.57616  0.36476  1.0000
  H   H154      1.0  0.14669  0.63339  0.38348  1.0000
  H   H155      1.0  0.03497  0.73229  0.34431  1.0000
  H   H156      1.0  0.16265  0.82781  0.33405  1.0000
  C   C88       1.0  0.05292  0.72839  0.62345  1.0000
  H   H157      1.0  0.10757  0.64337  0.71706  1.0000
  H   H158      1.0  0.38452  0.65912  0.55566  1.0000
  C   C89       1.0  0.21954  0.61037  0.71050  1.0000
  H   H159      1.0  0.23045  0.66997  0.59676  1.0000
  H   H160      1.0  0.03251  0.78815  0.59922  1.0000
  C   C90       1.0  0.49001  0.94831  0.54172  1.0000
  H   H161      1.0  0.01946  0.73593  0.66369  1.0000
  H   H162      1.0  0.15064  0.57938  0.66069  1.0000
  C   C91       1.0  0.03808  0.66796  0.58758  1.0000
  C   C92       1.0  0.09271  0.80560  0.72077  1.0000
  C   C93       1.0  0.33650  0.82681  0.54912  1.0000
  H   H163      1.0  0.48032  0.59593  0.62504  1.0000
  C   C94       1.0  0.27994  0.86905  0.64828  1.0000
  C   C95       1.0  0.47018  0.97781  0.72768  1.0000
  H   H164      1.0  0.16141  0.06389  0.58952  1.0000
  C   C96       1.0  0.10709  0.87509  0.74338  1.0000
  H   H165      1.0  0.21950  0.65903  0.73717  1.0000
  H   H166      1.0  0.44490  0.62071  0.49629  1.0000
  H   H167      1.0  0.09195  0.92763  0.71122  1.0000
  H   H168      1.0  0.19015  0.76556  0.66956  1.0000
  N   N4        1.0  0.12792  0.70574  0.63845  1.0000
  C   C97       1.0  0.13438  0.77755  0.66313  1.0000
  H   H169      1.0  0.17756  0.62489  0.56974  1.0000
  H   H170      1.0  0.03572  0.82768  0.71417  1.0000
  C   C98       1.0  0.45793  0.72046  0.53621  1.0000
  C   C99       1.0  0.15912  0.74661  0.53367  1.0000
  C   C100      1.0  0.48776  0.57716  0.57975  1.0000
  C   C101      1.0  0.14825  0.63395  0.68174  1.0000
  H   H171      1.0  0.28318  0.85170  0.69547  1.0000
  C   C102      1.0  0.45532  0.88840  0.55759  1.0000
  H   H172      1.0  0.23113  0.86789  0.63232  1.0000
  H   H173      1.0  0.48739  0.99217  0.68346  1.0000
  H   H174      1.0  0.41220  0.00133  0.72958  1.0000
  H   H175      1.0  0.27779  0.93183  0.64198  1.0000
  H   H176      1.0  0.11546  0.83107  0.63176  1.0000
  C   C103      1.0  0.34392  0.81107  0.61591  1.0000
  H   H177      1.0  0.39018  0.81796  0.63179  1.0000
  H   H178      1.0  0.34897  0.74835  0.62870  1.0000
  H   H179      1.0  0.40870  0.92006  0.58538  1.0000
  H   H180      1.0  0.05827  0.60624  0.60854  1.0000
  H   H181      1.0  0.26283  0.59768  0.67767  1.0000
  C   C104      1.0  0.17587  0.68265  0.58557  1.0000
  H   H182      1.0  0.47289  0.72774  0.57983  1.0000
  H   H183      1.0  0.06302  0.66493  0.54378  1.0000
  H   H184      1.0  0.30757  0.89272  0.53980  1.0000
  H   H185      1.0  0.30005  0.79912  0.53727  1.0000
  C   C105      1.0  0.43913  0.64477  0.53988  1.0000
  N   N5        1.0  0.40268  0.79760  0.51179  1.0000
  H   H186      1.0  0.45256  0.00441  0.52009  1.0000
  H   H187      1.0  0.10484  0.76508  0.51945  1.0000
  H   H188      1.0  0.16624  0.80157  0.54516  1.0000
  H   H189      1.0  0.00265  0.57977  0.69273  1.0000
  C   C106      1.0  0.43306  0.86158  0.50272  1.0000
  H   H190      1.0  0.49050  0.91117  0.73639  1.0000
  H   H191      1.0  0.49317  0.83661  0.58276  1.0000
  H   H192      1.0  0.59934  0.13203  0.84707  1.0000
  H   H193      1.0  0.83807  0.54445  0.79168  1.0000
  C   C107      1.0  0.96420  0.13661  0.89690  1.0000
  S   S23       1.0  0.63087  0.54945  0.94251  1.0000
  C   C108      1.0  0.90100  0.36355  0.92318  1.0000
  N   N6        1.0  0.91420  0.15734  0.79454  1.0000
  C   C109      1.0  0.83966  0.19658  0.81695  1.0000
  C   C110      1.0  0.57363  0.10939  0.81581  1.0000
  H   H194      1.0  0.84904  0.31714  0.99111  1.0000
  H   H195      1.0  0.91272  0.16498  0.91964  1.0000
  Fe  Fe14      1.0  0.58203  0.45792  0.95149  1.0000
  S   S24       1.0  0.82410  0.42780  0.88962  1.0000
  C   C111      1.0  0.57664  0.15564  0.75698  1.0000
  H   H196      1.0  0.63292  0.51133  0.80557  1.0000
  C   C112      1.0  0.89843  0.31666  0.97370  1.0000
  Fe  Fe15      1.0  0.73268  0.44287  0.94944  1.0000
  S   S25       1.0  0.68425  0.35271  0.95036  1.0000
  H   H197      1.0  0.92974  0.26490  0.81393  1.0000
  H   H198      1.0  0.54505  0.33664  0.98681  1.0000
  H   H199      1.0  0.55606  0.45078  0.76895  1.0000
  C   C113      1.0  0.49741  0.25240  0.97519  1.0000
  H   H200      1.0  0.55674  0.26976  0.79583  1.0000
  C   C114      1.0  0.96544  0.36000  0.89971  1.0000
  H   H201      1.0  0.76316  0.47321  0.76780  1.0000
  C   C115      1.0  0.71202  0.28293  0.79890  1.0000
  H   H202      1.0  0.96749  0.39713  0.86122  1.0000
  C   C116      1.0  0.72530  0.12365  0.95429  1.0000
  C   C117      1.0  0.53622  0.24660  0.76105  1.0000
  C   C118      1.0  0.51130  0.32172  0.96042  1.0000
  H   H203      1.0  0.83587  0.23836  0.85134  1.0000
  S   S26       1.0  0.50095  0.45672  0.89245  1.0000
  H   H204      1.0  0.98666  0.18281  0.88715  1.0000
  C   C119      1.0  0.95671  0.09875  0.84125  1.0000
  H   H205      1.0  0.51827  0.12940  0.83193  1.0000
  H   H206      1.0  0.67308  0.31074  0.76470  1.0000
  H   H207      1.0  0.69335  0.13284  0.91718  1.0000
  H   H208      1.0  0.70900  0.33074  0.82770  1.0000
  H   H209      1.0  0.69825  0.23599  0.82435  1.0000
  H   H210      1.0  0.82175  0.15065  0.83897  1.0000
  C   C120      1.0  0.94119  0.22293  0.77830  1.0000
  H   H211      1.0  0.79817  0.29639  0.75026  1.0000
  C   C121      1.0  0.78523  0.24618  0.77115  1.0000
  H   H212      1.0  0.88834  0.40025  0.77708  1.0000
  C   C122      1.0  0.83737  0.52607  0.74726  1.0000
  C   C123      1.0  0.63072  0.50794  0.75809  1.0000
  H   H213      1.0  0.51676  0.55933  0.76037  1.0000
  H   H214      1.0  0.90429  0.48213  0.99331  1.0000
  H   H215      1.0  0.94667  0.44695  0.75025  1.0000
  H   H216      1.0  0.67186  0.45022  0.74476  1.0000
  H   H217      1.0  0.71149  0.56901  0.83371  1.0000
  C   C124      1.0  0.56069  0.50472  0.74543  1.0000
  C   C125      1.0  0.96024  0.26753  0.00130  1.0000
  H   H218      1.0  0.52088  0.21375  0.01272  1.0000
  C   C126      1.0  0.69958  0.17358  0.00080  1.0000
  H   H219      1.0  0.53785  0.10081  0.11645  1.0000
  C   C127      1.0  0.98593  0.43288  0.23924  1.0000
  C   C128      1.0  0.86202  0.47499  0.21199  1.0000
  H   H220      1.0  0.82681  0.46339  0.18273  1.0000
  C   C129      1.0  0.80855  0.10437  0.04904  1.0000
  C   C130      1.0  0.57797  0.53148  0.20860  1.0000
  C   C131      1.0  0.91203  0.45370  0.08603  1.0000
  H   H221      1.0  0.70219  0.22343  0.22755  1.0000
  H   H222      1.0  0.77856  0.29190  0.19479  1.0000
  H   H223      1.0  0.83204  0.14196  0.19639  1.0000
  Fe  Fe16      1.0  0.62998  0.54035  0.03960  1.0000
  N   N7        1.0  0.93741  0.42676  0.19566  1.0000
  H   H224      1.0  0.59513  0.20351  0.18113  1.0000
  C   C132      1.0  0.94844  0.33894  0.19394  1.0000
  C   C133      1.0  0.74175  0.16562  0.04747  1.0000
  H   H225      1.0  0.95809  0.23096  0.04007  1.0000
  C   C134      1.0  0.95383  0.46007  0.13741  1.0000
  S   S27       1.0  0.57239  0.45724  0.04868  1.0000
  C   C135      1.0  0.54231  0.08233  0.21163  1.0000
  H   H226      1.0  0.89442  0.18645  0.20520  1.0000
  S   S28       1.0  0.71414  0.23858  0.09956  1.0000
  H   H227      1.0  0.90718  0.33223  0.16890  1.0000
  C   C136      1.0  0.56084  0.19512  0.14950  1.0000
  H   H228      1.0  0.84153  0.09942  0.08446  1.0000
  H   H229      1.0  0.85014  0.54078  0.20509  1.0000
  Fe  Fe17      1.0  0.67856  0.35691  0.04685  1.0000
  H   H230      1.0  0.91563  0.39122  0.08256  1.0000
  H   H231      1.0  0.98669  0.55330  0.21503  1.0000
  H   H232      1.0  0.94512  0.08988  0.11994  1.0000
  H   H233      1.0  0.94286  0.52547  0.13901  1.0000
  H   H234      1.0  0.57632  0.21278  0.10551  1.0000
  C   C137      1.0  0.56864  0.10699  0.15202  1.0000
  H   H235      1.0  0.56163  0.51354  0.16896  1.0000
  H   H236      1.0  0.50582  0.23532  0.15900  1.0000
  H   H237      1.0  0.93989  0.54072  0.02993  1.0000
  H   H238      1.0  0.62636  0.54260  0.19869  1.0000
  H   H239      1.0  0.85611  0.49383  0.09141  1.0000
  H   H240      1.0  0.63301  0.36529  0.20153  1.0000
  C   C138      1.0  0.84930  0.17576  0.22596  1.0000
  H   H241      1.0  0.69408  0.40074  0.22742  1.0000
  C   C139      1.0  0.93920  0.47965  0.02845  1.0000
  H   H242      1.0  0.64773  0.22013  0.99969  1.0000
  H   H243      1.0  0.98831  0.19020  0.14297  1.0000
  S   S29       1.0  0.73547  0.43989  0.04601  1.0000
  H   H244      1.0  0.94246  0.31357  0.23846  1.0000
  H   H245      1.0  0.99271  0.43591  0.01782  1.0000
  C   C140      1.0  0.79005  0.25651  0.23709  1.0000
  C   C141      1.0  0.64858  0.38515  0.24109  1.0000
  H   H246      1.0  0.92644  0.45446  0.39544  1.0000
  H   H247      1.0  0.74876  0.36539  0.44020  1.0000
  H   H248      1.0  0.61101  0.49151  0.46800  1.0000
  H   H249      1.0  0.86276  0.54547  0.47191  1.0000
  H   H250      1.0  0.79816  0.26346  0.36484  1.0000
  H   H251      1.0  0.56285  0.35331  0.32309  1.0000
  H   H252      1.0  0.62506  0.24292  0.39177  1.0000
  C   C142      1.0  0.88489  0.32198  0.48710  1.0000
  C   C143      1.0  0.58089  0.53430  0.43462  1.0000
  C   C144      1.0  0.73760  0.30970  0.44196  1.0000
  H   H253      1.0  0.68427  0.32328  0.46113  1.0000
  C   C145      1.0  0.86693  0.48408  0.47514  1.0000
  H   H254      1.0  0.83986  0.39665  0.28119  1.0000
  H   H255      1.0  0.77543  0.26242  0.47047  1.0000
  H   H256      1.0  0.52455  0.20774  0.31712  1.0000
  C   C146      1.0  0.90396  0.43193  0.43244  1.0000
  H   H257      1.0  0.98294  0.39800  0.28053  1.0000
  C   C147      1.0  0.97543  0.51959  0.25376  1.0000
  C   C148      1.0  0.52830  0.52071  0.40792  1.0000
  H   H258      1.0  0.86630  0.13971  0.26740  1.0000
  C   C149      1.0  0.91076  0.35161  0.43718  1.0000
  H   H259      1.0  0.55154  0.16328  0.38884  1.0000
  H   H260      1.0  0.50351  0.27037  0.37840  1.0000
  H   H261      1.0  0.64627  0.38332  0.36588  1.0000
  S   S30       1.0  0.94643  0.29236  0.37794  1.0000
  C   C150      1.0  0.74346  0.27930  0.38128  1.0000
  C   C151      1.0  0.54375  0.21688  0.35863  1.0000
  H   H262      1.0  0.73466  0.22250  0.38584  1.0000
  C   C152      1.0  0.61229  0.22912  0.34909  1.0000
  H   H263      1.0  0.65258  0.17137  0.33508  1.0000
  H   H264      1.0  0.71938  0.38659  0.32566  1.0000
  C   C153      1.0  0.69250  0.34538  0.33982  1.0000
  H   H265      1.0  0.74165  0.19237  0.29513  1.0000
  H   H266      1.0  0.74774  0.50600  0.33330  1.0000
  C   C154      1.0  0.60422  0.30010  0.30404  1.0000
  N   N8        1.0  0.66851  0.31769  0.28820  1.0000
  H   H267      1.0  0.87146  0.46661  0.30729  1.0000
  H   H268      1.0  0.60331  0.48853  0.29621  1.0000
  C   C155      1.0  0.76362  0.51823  0.28807  1.0000
  H   H269      1.0  0.80870  0.28898  0.26642  1.0000
  C   C156      1.0  0.58955  0.46615  0.25742  1.0000
  H   H270      1.0  0.53905  0.45962  0.26580  1.0000
  C   C157      1.0  0.83810  0.45900  0.27478  1.0000
  H   H271      1.0  0.58225  0.28919  0.26429  1.0000
  C   C158      1.0  0.72411  0.24433  0.26285  1.0000
  H   H272      1.0  0.92157  0.55476  0.26984  1.0000
  S   S31       1.0  0.51101  0.43479  0.42923  1.0000
  H   H273      1.0  0.50790  0.07869  0.33057  1.0000
  H   H274      1.0  0.56786  0.10080  0.24558  1.0000
  H   H275      1.0  0.89141  0.25920  0.49139  1.0000
  H   H276      1.0  0.72666  0.51209  0.25808  1.0000
  H   H277      1.0  0.97503  0.07927  0.72781  1.0000
  H   H278      1.0  0.99464  0.43953  0.65466  1.0000
  C   C159      1.0  0.83372  0.45790  0.52131  1.0000
  H   H279      1.0  0.55398  0.13593  0.72191  1.0000
  H   H280      1.0  0.89505  0.15323  0.70402  1.0000
  H   H281      1.0  0.89721  0.41886  0.70019  1.0000
  H   H282      1.0  0.91315  0.26128  0.74048  1.0000
  H   H283      1.0  0.55693  0.49978  0.69837  1.0000
  C   C160      1.0  0.76673  0.52127  0.73613  1.0000
  H   H284      1.0  0.99389  0.51413  0.59827  1.0000
  H   H285      1.0  0.82032  0.35471  0.56535  1.0000
  C   C161      1.0  0.91945  0.11118  0.74165  1.0000
  H   H286      1.0  0.63149  0.14583  0.74421  1.0000
  C   C162      1.0  0.97924  0.46189  0.60974  1.0000
  H   H287      1.0  0.78275  0.20760  0.73696  1.0000
  H   H288      1.0  0.92177  0.48250  0.60715  1.0000
  H   H289      1.0  0.77060  0.49793  0.69225  1.0000
  H   H290      1.0  0.54156  0.27871  0.71927  1.0000
  H   H291      1.0  0.54314  0.56160  0.56529  1.0000
  C   C163      1.0  0.84506  0.37576  0.52901  1.0000
  S   S32       1.0  0.77376  0.53088  0.56489  1.0000
  H   H292      1.0  0.64601  0.56835  0.67701  1.0000
  H   H293      1.0  0.99635  0.41847  0.52510  1.0000
  H   H294      1.0  0.84936  0.56820  0.71509  1.0000
  C   C164      1.0  0.89602  0.44289  0.74311  1.0000
  S   S33       1.0  0.93031  0.64727  0.79598  1.0000
  S   S34       1.0  0.82444  0.00321  0.89591  1.0000
  C   C165      1.0  0.80134  0.88024  0.77967  1.0000
  S   S35       1.0  0.98366  0.80740  0.85427  1.0000
  C   C166      1.0  0.79232  0.06284  0.95558  1.0000
  H   H295      1.0  0.61478  0.91635  0.87515  1.0000
  Fe  Fe18      1.0  0.94268  0.70971  0.87201  1.0000
  Fe  Fe19      1.0  0.90029  0.87698  0.91775  1.0000
  C   C167      1.0  0.72120  0.68485  0.81934  1.0000
  C   C168      1.0  0.72137  0.68901  0.88483  1.0000
  C   C169      1.0  0.62936  0.00522  0.92596  1.0000
  H   H296      1.0  0.54859  0.80718  0.93737  1.0000
  H   H297      1.0  0.59516  0.91933  0.77666  1.0000
  S   S36       1.0  0.85416  0.78341  0.92968  1.0000
  H   H298      1.0  0.73909  0.73703  0.89506  1.0000
  H   H299      1.0  0.65061  0.89200  0.97776  1.0000
  H   H300      1.0  0.66820  0.70304  0.90431  1.0000
  H   H301      1.0  0.91944  0.99536  0.78007  1.0000
  H   H302      1.0  0.68555  0.99146  0.91744  1.0000
  H   H303      1.0  0.70529  0.86489  0.79239  1.0000
  H   H304      1.0  0.73730  0.88549  0.85673  1.0000
  H   H305      1.0  0.75810  0.63035  0.90419  1.0000
  H   H306      1.0  0.99147  0.02577  0.95247  1.0000
  H   H307      1.0  0.69143  0.01135  0.75404  1.0000
  H   H308      1.0  0.53925  0.00476  0.88649  1.0000
  C   C170      1.0  0.62264  0.95812  0.98217  1.0000
  H   H309      1.0  0.83359  0.06945  0.76503  1.0000
  H   H310      1.0  0.56683  0.97208  0.99376  1.0000
  C   C171      1.0  0.57595  0.98630  0.77132  1.0000
  C   C172      1.0  0.59599  0.98341  0.87499  1.0000
  H   H311      1.0  0.82891  0.91644  0.79481  1.0000
  C   C173      1.0  0.68409  0.99394  0.80041  1.0000
  H   H312      1.0  0.63389  0.65095  0.81480  1.0000
  N   N9        1.0  0.60736  0.01842  0.81573  1.0000
  H   H313      1.0  0.68875  0.74594  0.80129  1.0000
  H   H314      1.0  0.70715  0.02782  0.82493  1.0000
  H   H315      1.0  0.77532  0.67038  0.80264  1.0000
  C   C174      1.0  0.69069  0.62327  0.80317  1.0000
  H   H316      1.0  0.60255  0.07048  0.93381  1.0000
  H   H317      1.0  0.93303  0.05460  0.85574  1.0000
  C   C175      1.0  0.72967  0.90248  0.80985  1.0000
  H   H318      1.0  0.83342  0.81540  0.78970  1.0000
  C   C176      1.0  0.88876  0.04510  0.74910  1.0000
  S   S37       1.0  0.96880  0.83000  0.99451  1.0000
  C   C177      1.0  0.83367  0.05239  0.00331  1.0000
  S   S38       1.0  0.89517  0.69268  0.08987  1.0000
  H   H319      1.0  0.77109  0.85717  0.11178  1.0000
  H   H320      1.0  0.66024  0.94410  0.18646  1.0000
  N   N10       1.0  0.93745  0.87635  0.20009  1.0000
  C   C178      1.0  0.81606  0.67932  0.09002  1.0000
  H   H321      1.0  0.63699  0.82186  0.22500  1.0000
  C   C179      1.0  0.79149  0.66387  0.03922  1.0000
  C   C180      1.0  0.77763  0.68295  0.14211  1.0000
  H   H322      1.0  0.82202  0.65806  0.99917  1.0000
  H   H323      1.0  0.90099  0.00657  0.18545  1.0000
  H   H324      1.0  0.78629  0.93643  0.18925  1.0000
  H   H325      1.0  0.94475  0.95755  0.08810  1.0000
  N   N11       1.0  0.55444  0.99403  0.22172  1.0000
  C   C181      1.0  0.63174  0.94638  0.22887  1.0000
  C   C182      1.0  0.72852  0.65236  0.04075  1.0000
  C   C183      1.0  0.78133  0.91269  0.10044  1.0000
  C   C184      1.0  0.71310  0.67515  0.14313  1.0000
  C   C185      1.0  0.99328  0.03641  0.11089  1.0000
  H   H326      1.0  0.79829  0.69104  0.18173  1.0000
  H   H327      1.0  0.82327  0.98857  0.13700  1.0000
  H   H328      1.0  0.98558  0.70153  0.18171  1.0000
  H   H329      1.0  0.81291  0.90473  0.05926  1.0000
  H   H330      1.0  0.56505  0.96423  0.13182  1.0000
  C   C186      1.0  0.94981  0.95226  0.18269  1.0000
  H   H331      1.0  0.98438  0.96018  0.21408  1.0000
  C   C187      1.0  0.98097  0.95820  0.12091  1.0000
  H   H332      1.0  0.54016  0.89854  0.17958  1.0000
  C   C188      1.0  0.53168  0.96337  0.17109  1.0000
  C   C189      1.0  0.81916  0.93010  0.14907  1.0000
  H   H333      1.0  0.75936  0.81700  0.21665  1.0000
  C   C190      1.0  0.68856  0.65979  0.09229  1.0000
  H   H334      1.0  0.68335  0.67847  0.18349  1.0000
  H   H335      1.0  0.88132  0.80685  0.17357  1.0000
  C   C191      1.0  0.89165  0.86139  0.15835  1.0000
  H   H336      1.0  0.73080  0.96433  0.09324  1.0000
  S   S39       1.0  0.60986  0.64567  0.09338  1.0000
  H   H337      1.0  0.91922  0.84679  0.11557  1.0000
  H   H338      1.0  0.71056  0.63779  0.00208  1.0000
  H   H339      1.0  0.64594  0.97613  0.01779  1.0000
  Fe  Fe20      1.0  0.92788  0.73107  0.00224  1.0000
  H   H340      1.0  0.88599  0.00676  0.00349  1.0000
  H   H341      1.0  0.62450  0.06913  0.14357  1.0000
  H   H342      1.0  0.53618  0.58887  0.22187  1.0000
  H   H343      1.0  0.58743  0.99058  0.33717  1.0000
  Fe  Fe21      1.0  0.64936  0.75263  0.41706  1.0000
  S   S40       1.0  0.75260  0.64942  0.41343  1.0000
  H   H344      1.0  0.92227  0.62172  0.45606  1.0000
  H   H345      1.0  0.79453  0.92614  0.34420  1.0000
  H   H346      1.0  0.80093  0.01936  0.36014  1.0000
  C   C192      1.0  0.90654  0.87973  0.26134  1.0000
  H   H347      1.0  0.62993  0.85482  0.29735  1.0000
  C   C193      1.0  0.53050  0.01166  0.33150  1.0000
  H   H348      1.0  0.76045  0.58150  0.28388  1.0000
  C   C194      1.0  0.51264  0.98401  0.27498  1.0000
  H   H349      1.0  0.63225  0.61561  0.44198  1.0000
  H   H350      1.0  0.51649  0.92043  0.28175  1.0000
  Fe  Fe22      1.0  0.80011  0.74071  0.41753  1.0000
  H   H351      1.0  0.87238  0.92455  0.37578  1.0000
  S   S41       1.0  0.97041  0.06193  0.38451  1.0000
  C   C195      1.0  0.97086  0.62465  0.44056  1.0000
  S   S42       1.0  0.56535  0.75173  0.36120  1.0000
  H   H352      1.0  0.65413  0.97707  0.25701  1.0000
  H   H353      1.0  0.94847  0.85156  0.29345  1.0000
  C   C196      1.0  0.83058  0.95797  0.34463  1.0000
  C   C197      1.0  0.59339  0.60440  0.41943  1.0000
  C   C198      1.0  0.55452  0.66020  0.37648  1.0000
  C   C199      1.0  0.86216  0.96436  0.28405  1.0000
  C   C200      1.0  0.50335  0.64527  0.34854  1.0000
  H   H354      1.0  0.74674  0.75317  0.27656  1.0000
  H   H355      1.0  0.89597  0.99846  0.28776  1.0000
  S   S43       1.0  0.69697  0.84521  0.41161  1.0000
  H   H356      1.0  0.75078  0.84837  0.28963  1.0000
  C   C201      1.0  0.97110  0.68207  0.39686  1.0000
  S   S44       1.0  0.89263  0.74346  0.36421  1.0000
  H   H357      1.0  0.53000  0.91498  0.39356  1.0000
  H   H358      1.0  0.87392  0.84324  0.26636  1.0000
  H   H359      1.0  0.81906  0.99977  0.25486  1.0000
  H   H360      1.0  0.50294  0.01280  0.42285  1.0000
  H   H361      1.0  0.74002  0.03448  0.47613  1.0000
  H   H362      1.0  0.86093  0.03169  0.47083  1.0000
  C   C202      1.0  0.65337  0.85765  0.25349  1.0000
  H   H363      1.0  0.97879  0.72011  0.25715  1.0000
  C   C203      1.0  0.73239  0.81674  0.25928  1.0000
  C   C204      1.0  0.49984  0.98057  0.38483  1.0000
  C   C205      1.0  0.87441  0.90266  0.58892  1.0000
  H   H364      1.0  0.91154  0.86534  0.62039  1.0000
  H   H365      1.0  0.61285  0.75772  0.73173  1.0000
  C   C206      1.0  0.65961  0.81069  0.66387  1.0000
  N   N12       1.0  0.70249  0.59808  0.74126  1.0000
  S   S45       1.0  0.80053  0.73348  0.51435  1.0000
  C   C207      1.0  0.95969  0.69443  0.57996  1.0000
  C   C208      1.0  0.80665  0.90393  0.59184  1.0000
  C   C209      1.0  0.75788  0.95182  0.55155  1.0000
  H   H366      1.0  0.94035  0.74928  0.55009  1.0000
  C   C210      1.0  0.84583  0.99640  0.50472  1.0000
  H   H367      1.0  0.69052  0.79412  0.62271  1.0000
  Fe  Fe23      1.0  0.69484  0.83330  0.50835  1.0000
  H   H368      1.0  0.75285  0.67948  0.70937  1.0000
  H   H369      1.0  0.50748  0.96472  0.58144  1.0000
  H   H370      1.0  0.59323  0.99913  0.72652  1.0000
  H   H371      1.0  0.69029  0.82784  0.69406  1.0000
  H   H372      1.0  0.59160  0.63404  0.72962  1.0000
  C   C211      1.0  0.64117  0.58040  0.72403  1.0000
  S   S46       1.0  0.63892  0.74818  0.51419  1.0000
  H   H373      1.0  0.87087  0.95991  0.69823  1.0000
  H   H374      1.0  0.85957  0.05419  0.65902  1.0000
  H   H375      1.0  0.72561  0.63748  0.65486  1.0000
  H   H376      1.0  0.79607  0.89011  0.73197  1.0000
  H   H377      1.0  0.94894  0.64635  0.56059  1.0000
  H   H378      1.0  0.60771  0.72904  0.66022  1.0000
  H   H379      1.0  0.79246  0.86660  0.62477  1.0000
  C   C212      1.0  0.70962  0.66214  0.69840  1.0000
  H   H380      1.0  0.93035  0.70667  0.62218  1.0000
  C   C213      1.0  0.89461  0.94806  0.54519  1.0000
  C   C214      1.0  0.64251  0.73993  0.69023  1.0000
  C   C215      1.0  0.89170  0.00796  0.69155  1.0000
  S   S47       1.0  0.98115  0.94249  0.54327  1.0000
  H   H381      1.0  0.94637  0.98042  0.67438  1.0000
  H   H382      1.0  0.61067  0.86385  0.65451  1.0000
  S   S48       1.0  0.67521  0.94653  0.55293  1.0000
  H   H383      1.0  0.53659  0.92144  0.51270  1.0000
  Fe  Fe24      1.0  0.74574  0.64874  0.51090  1.0000
  H   H384      1.0  0.50708  0.70511  0.50919  1.0000
  C   C216      1.0  0.77736  0.99833  0.50796  1.0000
