data_image0
_chemical_formula_structural       H3CH3CFeSFeS3C3H4C2H2CNC4HC4H11CH5C3H3C2HCH7C2H3CNHCH4CH7FeSFeS3H3CH2C3H3NHC6H5CH9CHCH2CHSH2SFeC7H4CSH2CH2C3HCH5SHCH4C2HFeH5CH3FeS2FeSCFeSFeS2CSH2C6H4CH2CHNC5HCH16CHCH2CH2SCH3C3H3C2S2CFeSFeC6H4CH2CH4CHCH2SH3NC2H3CH4C2H6CH4CH3CH2SCH6FeC6H3NHCSH5C3HC2H3FeHCHCH2CH2S2H3FeSHSC7H5SHCFeHCH3SHCHCHCHCHCH5CH2CHFeSFeS2FeSFeS3C3H3C6H5C7H6CHCH6C2NH4NCH8CHCHSCH2C3H4CHCH3C2H6CH3CH3C3H5S2FeSFeSFeSFeHS2HCH3C7H7C3H3CHC3H5CH2C3H8C3H2C2SH3NH3NH3NCH3CHCH2C3H2CH6C3H2CH6CHCH2NC2H6C2H2CH2CHC2H5
_chemical_formula_sum              "H384 C216 Fe24 S48 N12"
_cell_length_a       30.0239
_cell_length_b       30.4189
_cell_length_c       32.3758
_cell_angle_alpha    89.6888
_cell_angle_beta     90.19
_cell_angle_gamma    120.008

_space_group_name_H-M_alt    "P 1"
_space_group_IT_number       1

loop_
  _space_group_symop_operation_xyz
  'x, y, z'

loop_
  _atom_site_type_symbol
  _atom_site_label
  _atom_site_symmetry_multiplicity
  _atom_site_fract_x
  _atom_site_fract_y
  _atom_site_fract_z
  _atom_site_occupancy
  H   H1        1.0  0.46220  0.00241  0.05076  1.0000
  H   H2        1.0  0.48808  0.13796  0.30913  1.0000
  H   H3        1.0  0.45362  0.01730  0.14377  1.0000
  C   C1        1.0  0.47984  0.02194  0.08020  1.0000
  H   H4        1.0  0.45354  0.05691  0.32540  1.0000
  H   H5        1.0  0.40532  0.00373  0.10489  1.0000
  H   H6        1.0  0.49104  0.06254  0.07730  1.0000
  C   C2        1.0  0.43829  0.99861  0.11353  1.0000
  Fe  Fe1       1.0  0.44285  0.18774  0.53334  1.0000
  S   S1        1.0  0.37428  0.11919  0.50272  1.0000
  Fe  Fe2       1.0  0.47637  0.29518  0.56741  1.0000
  S   S2        1.0  0.45500  0.35709  0.57663  1.0000
  S   S3        1.0  0.47026  0.26408  0.50331  1.0000
  S   S4        1.0  0.44247  0.21803  0.59684  1.0000
  C   C3        1.0  0.48850  0.20994  0.40648  1.0000
  C   C4        1.0  0.40246  0.04432  0.50317  1.0000
  C   C5        1.0  0.36657  0.05841  0.49091  1.0000
  H   H7        1.0  0.38374  0.26562  0.46068  1.0000
  H   H8        1.0  0.43514  0.06992  0.52179  1.0000
  H   H9        1.0  0.40526  0.07268  0.34091  1.0000
  H   H10       1.0  0.26814  0.10005  0.51150  1.0000
  C   C6        1.0  0.40366  0.40353  0.60777  1.0000
  C   C7        1.0  0.40778  0.35940  0.60833  1.0000
  H   H11       1.0  0.31290  0.19135  0.49248  1.0000
  H   H12       1.0  0.42956  0.43533  0.58859  1.0000
  C   C8        1.0  0.37411  0.31866  0.63340  1.0000
  N   N1        1.0  0.26985  0.18237  0.54860  1.0000
  C   C9        1.0  0.22290  0.13459  0.53386  1.0000
  C   C10       1.0  0.25287  0.21407  0.57238  1.0000
  C   C11       1.0  0.29821  0.21248  0.51062  1.0000
  C   C12       1.0  0.30571  0.17172  0.57417  1.0000
  H   H13       1.0  0.42351  0.05577  0.41643  1.0000
  C   C13       1.0  0.23359  0.10224  0.50269  1.0000
  C   C14       1.0  0.34576  0.26565  0.51824  1.0000
  C   C15       1.0  0.45893  0.15301  0.39442  1.0000
  C   C16       1.0  0.32361  0.02371  0.46764  1.0000
  H   H14       1.0  0.25678  0.48991  0.49066  1.0000
  H   H15       1.0  0.30107  0.08531  0.64876  1.0000
  H   H16       1.0  0.42472  0.13408  0.41519  1.0000
  H   H17       1.0  0.19545  0.14414  0.51858  1.0000
  H   H18       1.0  0.20103  0.10966  0.56011  1.0000
  H   H19       1.0  0.37720  0.28477  0.63461  1.0000
  H   H20       1.0  0.23025  0.22519  0.55179  1.0000
  H   H21       1.0  0.27153  0.21766  0.48976  1.0000
  H   H22       1.0  0.25002  0.12075  0.62146  1.0000
  H   H23       1.0  0.33375  0.16827  0.55398  1.0000
  H   H24       1.0  0.32989  0.20465  0.59451  1.0000
  C   C17       1.0  0.33646  0.32194  0.65710  1.0000
  H   H25       1.0  0.24739  0.46668  0.56485  1.0000
  H   H26       1.0  0.24040  0.11961  0.47139  1.0000
  H   H27       1.0  0.34705  0.29794  0.45763  1.0000
  H   H28       1.0  0.37372  0.26252  0.53875  1.0000
  H   H29       1.0  0.33491  0.29208  0.53241  1.0000
  C   C18       1.0  0.22156  0.19063  0.61237  1.0000
  C   C19       1.0  0.37265  0.29036  0.47758  1.0000
  C   C20       1.0  0.45335  0.06978  0.39178  1.0000
  H   H30       1.0  0.40806  0.32707  0.48414  1.0000
  H   H31       1.0  0.24734  0.19022  0.63687  1.0000
  H   H32       1.0  0.18137  0.02811  0.52966  1.0000
  C   C21       1.0  0.42545  0.05195  0.34975  1.0000
  C   C22       1.0  0.36632  0.40700  0.63175  1.0000
  H   H33       1.0  0.45555  0.23654  0.35917  1.0000
  C   C23       1.0  0.33219  0.36604  0.65641  1.0000
  H   H34       1.0  0.42017  0.21771  0.40750  1.0000
  H   H35       1.0  0.28663  0.25009  0.58285  1.0000
  H   H36       1.0  0.44268  0.15005  0.36311  1.0000
  H   H37       1.0  0.47397  0.04822  0.39558  1.0000
  H   H38       1.0  0.32529  0.46885  0.38113  1.0000
  H   H39       1.0  0.18905  0.15167  0.60772  1.0000
  H   H40       1.0  0.19674  0.02681  0.47617  1.0000
  C   C24       1.0  0.32039  0.11972  0.62890  1.0000
  C   C25       1.0  0.18814  0.04815  0.49955  1.0000
  H   H41       1.0  0.15277  0.04852  0.48996  1.0000
  H   H42       1.0  0.17008  0.22164  0.60639  1.0000
  H   H43       1.0  0.29532  0.03384  0.45818  1.0000
  C   C26       1.0  0.19888  0.22248  0.62848  1.0000
  N   N2        1.0  0.48960  0.12611  0.39701  1.0000
  H   H44       1.0  0.48179  0.12574  0.46360  1.0000
  C   C27       1.0  0.28068  0.12286  0.60135  1.0000
  H   H45       1.0  0.26337  0.08841  0.58177  1.0000
  H   H46       1.0  0.22948  0.26256  0.63320  1.0000
  H   H47       1.0  0.02716  0.39223  0.65591  1.0000
  H   H48       1.0  0.36356  0.44110  0.63077  1.0000
  C   C28       1.0  0.45909  0.23668  0.39333  1.0000
  H   H49       1.0  0.34938  0.11676  0.60968  1.0000
  H   H50       1.0  0.33999  0.15355  0.64916  1.0000
  H   H51       1.0  0.48015  0.27672  0.40382  1.0000
  H   H52       1.0  0.49324  0.21334  0.44049  1.0000
  H   H53       1.0  0.17955  0.20702  0.65858  1.0000
  H   H54       1.0  0.01513  0.44418  0.64925  1.0000
  H   H55       1.0  0.26977  0.49750  0.41255  1.0000
  Fe  Fe3       1.0  0.18148  0.44660  0.73987  1.0000
  S   S5        1.0  0.09341  0.39797  0.74623  1.0000
  Fe  Fe4       1.0  0.26979  0.43286  0.70410  1.0000
  S   S6        1.0  0.28214  0.36690  0.68532  1.0000
  S   S7        1.0  0.23492  0.42260  0.76736  1.0000
  S   S8        1.0  0.21281  0.45190  0.67531  1.0000
  H   H56       1.0  0.20008  0.30784  0.92909  1.0000
  H   H57       1.0  0.03305  0.41684  0.88378  1.0000
  H   H58       1.0  0.22999  0.45530  0.86246  1.0000
  C   C29       1.0  0.25936  0.32285  0.88505  1.0000
  H   H59       1.0  0.13647  0.33402  0.94810  1.0000
  H   H60       1.0  0.04000  0.26525  0.79435  1.0000
  C   C30       1.0  0.04876  0.38111  0.78765  1.0000
  C   C31       1.0  0.05967  0.41054  0.82330  1.0000
  C   C32       1.0  0.06066  0.31108  0.92333  1.0000
  H   H61       1.0  0.09576  0.44572  0.82570  1.0000
  H   H62       1.0  0.02861  0.23631  0.95222  1.0000
  H   H63       1.0  0.06112  0.34682  0.93083  1.0000
  N   N3        1.0  0.14792  0.35529  0.88365  1.0000
  H   H64       1.0  0.09740  0.29905  0.76309  1.0000
  C   C33       1.0  0.20104  0.36104  0.88258  1.0000
  C   C34       1.0  0.15434  0.40686  0.89280  1.0000
  C   C35       1.0  0.12147  0.33795  0.84242  1.0000
  C   C36       1.0  0.07850  0.27006  0.78784  1.0000
  C   C37       1.0  0.20589  0.31428  0.89521  1.0000
  C   C38       1.0  0.19119  0.45115  0.86381  1.0000
  H   H65       1.0  0.31060  0.29019  0.67632  1.0000
  H   H66       1.0  0.28955  0.35721  0.90099  1.0000
  H   H67       1.0  0.17560  0.44514  0.83198  1.0000
  H   H68       1.0  0.14853  0.28823  0.81880  1.0000
  H   H69       1.0  0.03737  0.29475  0.89499  1.0000
  C   C39       1.0  0.03233  0.27386  0.95856  1.0000
  H   H70       1.0  0.11147  0.28158  0.91421  1.0000
  H   H71       1.0  0.21830  0.37371  0.85128  1.0000
  H   H72       1.0  0.22765  0.39172  0.90396  1.0000
  H   H73       1.0  0.16839  0.41823  0.92507  1.0000
  H   H74       1.0  0.11685  0.40566  0.89099  1.0000
  H   H75       1.0  0.08439  0.33755  0.84254  1.0000
  H   H76       1.0  0.14422  0.36539  0.81772  1.0000
  H   H77       1.0  0.26628  0.32760  0.85117  1.0000
  H   H78       1.0  0.26239  0.28957  0.89540  1.0000
  C   C40       1.0  0.11148  0.28583  0.82695  1.0000
  H   H79       1.0  0.17730  0.27911  0.87957  1.0000
  C   C41       1.0  0.02378  0.39427  0.85602  1.0000
  H   H80       1.0  0.05293  0.28878  0.98828  1.0000
  H   H81       1.0  0.09104  0.25557  0.85031  1.0000
  C   C42       1.0  0.11602  0.31978  0.91809  1.0000
  H   H82       1.0  0.07323  0.23338  0.77647  1.0000
  S   S9        1.0  0.45920  0.71436  0.08550  1.0000
  H   H83       1.0  0.50183  0.71520  0.19264  1.0000
  H   H84       1.0  0.02041  0.57090  0.25655  1.0000
  S   S10       1.0  0.49714  0.82178  0.03709  1.0000
  Fe  Fe5       1.0  0.47577  0.74181  0.01938  1.0000
  C   C43       1.0  0.48679  0.69855  0.22370  1.0000
  C   C44       1.0  0.36090  0.75214  0.26866  1.0000
  C   C45       1.0  0.37056  0.72348  0.23975  1.0000
  C   C46       1.0  0.39760  0.74567  0.20278  1.0000
  C   C47       1.0  0.41615  0.79711  0.19454  1.0000
  C   C48       1.0  0.40589  0.82562  0.22314  1.0000
  C   C49       1.0  0.37834  0.80332  0.25990  1.0000
  H   H85       1.0  0.35657  0.68370  0.24582  1.0000
  H   H86       1.0  0.40395  0.72300  0.18051  1.0000
  H   H87       1.0  0.41964  0.86535  0.21698  1.0000
  H   H88       1.0  0.37126  0.82593  0.28175  1.0000
  C   C50       1.0  0.43195  0.61313  0.18988  1.0000
  S   S11       1.0  0.32990  0.72308  0.31615  1.0000
  H   H89       1.0  0.44327  0.63128  0.15890  1.0000
  H   H90       1.0  0.46133  0.62301  0.25147  1.0000
  C   C51       1.0  0.44070  0.57795  0.05773  1.0000
  H   H91       1.0  0.04714  0.62106  0.17015  1.0000
  H   H92       1.0  0.10065  0.64680  0.27616  1.0000
  C   C52       1.0  0.47454  0.64285  0.22140  1.0000
  C   C53       1.0  0.02191  0.58781  0.19004  1.0000
  C   C54       1.0  0.09279  0.63694  0.24289  1.0000
  H   H93       1.0  0.44993  0.69828  0.22664  1.0000
  C   C55       1.0  0.05718  0.70327  0.32972  1.0000
  H   H94       1.0  0.42109  0.67336  0.29070  1.0000
  H   H95       1.0  0.42210  0.53633  0.06282  1.0000
  H   H96       1.0  0.04090  0.75027  0.28960  1.0000
  H   H97       1.0  0.11262  0.61596  0.23371  1.0000
  H   H98       1.0  0.45032  0.73563  0.31348  1.0000
  S   S12       1.0  0.45281  0.82749  0.14942  1.0000
  H   H99       1.0  0.10874  0.67293  0.22500  1.0000
  C   C56       1.0  0.02537  0.71320  0.30380  1.0000
  H   H100      1.0  0.42506  0.57380  0.18750  1.0000
  H   H101      1.0  0.45426  0.59773  0.08780  1.0000
  H   H102      1.0  0.42398  0.95724  0.11673  1.0000
  H   H103      1.0  0.39559  0.61140  0.19943  1.0000
  C   C57       1.0  0.45122  0.69966  0.31239  1.0000
  C   C58       1.0  0.03481  0.60455  0.23597  1.0000
  H   H104      1.0  0.01719  0.62677  0.24661  1.0000
  Fe  Fe6       1.0  0.48674  0.79524  0.10325  1.0000
  H   H105      1.0  0.48825  0.77828  0.25929  1.0000
  H   H106      1.0  0.36763  0.98265  0.32006  1.0000
  H   H107      1.0  0.03570  0.56038  0.18497  1.0000
  H   H108      1.0  0.41159  0.58675  0.04500  1.0000
  H   H109      1.0  0.48934  0.93174  0.04437  1.0000
  C   C59       1.0  0.48554  0.59613  0.02747  1.0000
  H   H110      1.0  0.02700  0.57418  0.10742  1.0000
  H   H111      1.0  0.50112  0.63739  0.02300  1.0000
  H   H112      1.0  0.37769  0.74544  0.48900  1.0000
  Fe  Fe7       1.0  0.29058  0.82937  0.42111  1.0000
  S   S13       1.0  0.31321  0.76868  0.42650  1.0000
  S   S14       1.0  0.35103  0.90549  0.45004  1.0000
  Fe  Fe8       1.0  0.19031  0.75640  0.37461  1.0000
  S   S15       1.0  0.20705  0.69240  0.37774  1.0000
  C   C60       1.0  0.03629  0.65519  0.34809  1.0000
  Fe  Fe9       1.0  0.23102  0.71569  0.44395  1.0000
  S   S16       1.0  0.20147  0.65118  0.49207  1.0000
  Fe  Fe10      1.0  0.28843  0.75013  0.36008  1.0000
  S   S17       1.0  0.20888  0.77666  0.44223  1.0000
  S   S18       1.0  0.27110  0.81375  0.35320  1.0000
  C   C61       1.0  0.35394  0.96269  0.46707  1.0000
  S   S19       1.0  0.30045  0.60458  0.65040  1.0000
  H   H113      1.0  0.38146  0.66840  0.50860  1.0000
  H   H114      1.0  0.28421  0.95014  0.43770  1.0000
  C   C62       1.0  0.22924  0.64032  0.53708  1.0000
  C   C63       1.0  0.20197  0.59322  0.55760  1.0000
  C   C64       1.0  0.22285  0.58180  0.59244  1.0000
  C   C65       1.0  0.27148  0.61745  0.60731  1.0000
  C   C66       1.0  0.29871  0.66470  0.58697  1.0000
  C   C67       1.0  0.27776  0.67614  0.55213  1.0000
  H   H115      1.0  0.16440  0.56521  0.54633  1.0000
  H   H116      1.0  0.20139  0.54531  0.60765  1.0000
  H   H117      1.0  0.33629  0.69268  0.59820  1.0000
  H   H118      1.0  0.29907  0.71267  0.53697  1.0000
  C   C68       1.0  0.40293  0.73469  0.47205  1.0000
  H   H119      1.0  0.44196  0.75546  0.48591  1.0000
  H   H120      1.0  0.43282  0.63805  0.35615  1.0000
  C   C69       1.0  0.17881  0.56020  0.39324  1.0000
  H   H121      1.0  0.16004  0.57152  0.41719  1.0000
  N   N4        1.0  0.30256  0.59003  0.45631  1.0000
  C   C70       1.0  0.24684  0.56823  0.44422  1.0000
  C   C71       1.0  0.30640  0.57338  0.49974  1.0000
  C   C72       1.0  0.32734  0.64732  0.45587  1.0000
  C   C73       1.0  0.23652  0.58508  0.40164  1.0000
  C   C74       1.0  0.38196  0.67753  0.47531  1.0000
  H   H122      1.0  0.46538  0.70106  0.37867  1.0000
  C   C75       1.0  0.33133  0.57600  0.42594  1.0000
  H   H123      1.0  0.22680  0.57826  0.46798  1.0000
  H   H124      1.0  0.28688  0.53232  0.57880  1.0000
  H   H125      1.0  0.34484  0.57703  0.50475  1.0000
  H   H126      1.0  0.30368  0.59905  0.52278  1.0000
  H   H127      1.0  0.30241  0.65910  0.47216  1.0000
  H   H128      1.0  0.37217  0.59263  0.43546  1.0000
  H   H129      1.0  0.06004  0.64689  0.36816  1.0000
  H   H130      1.0  0.42500  0.98716  0.50000  1.0000
  H   H131      1.0  0.40560  0.74657  0.43919  1.0000
  H   H132      1.0  0.25379  0.57421  0.37628  1.0000
  H   H133      1.0  0.40266  0.97230  0.36066  1.0000
  H   H134      1.0  0.25222  0.62669  0.40050  1.0000
  H   H135      1.0  0.33268  0.59306  0.39517  1.0000
  H   H136      1.0  0.40959  0.66935  0.45938  1.0000
  H   H137      1.0  0.33097  0.66187  0.42369  1.0000
  H   H138      1.0  0.22602  0.52620  0.44418  1.0000
  C   C76       1.0  0.26434  0.51942  0.51379  1.0000
  H   H139      1.0  0.39874  0.67226  0.36413  1.0000
  C   C77       1.0  0.31712  0.97607  0.45599  1.0000
  H   H140      1.0  0.43870  0.75805  0.63295  1.0000
  H   H141      1.0  0.16063  0.51820  0.39295  1.0000
  C   C78       1.0  0.43638  0.67619  0.35554  1.0000
  H   H142      1.0  0.22757  0.51900  0.51917  1.0000
  H   H143      1.0  0.38158  0.52971  0.39043  1.0000
  S   S20       1.0  0.12213  0.75247  0.33828  1.0000
  C   C79       1.0  0.31137  0.51875  0.41990  1.0000
  H   H144      1.0  0.33240  0.52434  0.35480  1.0000
  H   H145      1.0  0.40989  0.78912  0.65997  1.0000
  H   H146      1.0  0.17244  0.57297  0.36269  1.0000
  C   C80       1.0  0.27929  0.50401  0.55428  1.0000
  C   C81       1.0  0.33952  0.51012  0.38436  1.0000
  C   C82       1.0  0.43646  0.77380  0.66326  1.0000
  H   H147      1.0  0.31419  0.50071  0.54999  1.0000
  H   H148      1.0  0.31890  0.50268  0.44815  1.0000
  H   H149      1.0  0.35396  0.98839  0.37315  1.0000
  C   C83       1.0  0.39644  0.99712  0.49093  1.0000
  C   C84       1.0  0.38511  0.99543  0.35110  1.0000
  S   S21       1.0  0.32840  0.51448  0.71593  1.0000
  S   S22       1.0  0.23468  0.52964  0.75423  1.0000
  C   C85       1.0  0.43789  0.77709  0.83211  1.0000
  Fe  Fe11      1.0  0.29036  0.50580  0.77770  1.0000
  S   S23       1.0  0.33984  0.52722  0.83654  1.0000
  Fe  Fe12      1.0  0.26918  0.53328  0.69127  1.0000
  C   C86       1.0  0.39689  0.65856  0.93049  1.0000
  C   C87       1.0  0.41890  0.62750  0.92893  1.0000
  C   C88       1.0  0.40107  0.58766  0.89992  1.0000
  C   C89       1.0  0.36144  0.57867  0.87184  1.0000
  C   C90       1.0  0.33960  0.60986  0.87332  1.0000
  C   C91       1.0  0.35708  0.64932  0.90259  1.0000
  H   H150      1.0  0.44947  0.63414  0.95015  1.0000
  H   H151      1.0  0.41812  0.56366  0.89917  1.0000
  H   H152      1.0  0.30887  0.60322  0.85233  1.0000
  H   H153      1.0  0.33927  0.67262  0.90398  1.0000
  C   C92       1.0  0.44471  0.62183  0.76945  1.0000
  H   H154      1.0  0.45808  0.75661  0.84197  1.0000
  H   H155      1.0  0.39601  0.77645  0.73541  1.0000
  C   C93       1.0  0.29764  0.69625  0.74905  1.0000
  H   H156      1.0  0.45476  0.77952  0.74761  1.0000
  H   H157      1.0  0.46028  0.71466  0.78012  1.0000
  H   H158      1.0  0.36805  0.76483  0.80349  1.0000
  H   H159      1.0  0.24454  0.63105  0.71197  1.0000
  C   C94       1.0  0.41829  0.68762  0.78359  1.0000
  H   H160      1.0  0.29364  0.71811  0.77461  1.0000
  C   C95       1.0  0.41420  0.75249  0.73899  1.0000
  H   H161      1.0  0.40564  0.77104  0.89361  1.0000
  H   H162      1.0  0.41276  0.67604  0.81675  1.0000
  S   S24       1.0  0.41737  0.70951  0.96615  1.0000
  H   H163      1.0  0.33177  0.65087  0.73510  1.0000
  H   H164      1.0  0.40329  0.64202  0.72635  1.0000
  H   H165      1.0  0.21904  0.66998  0.72960  1.0000
  N   N5        1.0  0.38784  0.71355  0.77273  1.0000
  C   C96       1.0  0.43000  0.80091  0.87085  1.0000
  C   C97       1.0  0.41655  0.73181  0.69597  1.0000
  H   H166      1.0  0.43338  0.58534  0.75378  1.0000
  H   H167      1.0  0.31462  0.64765  0.78745  1.0000
  H   H168      1.0  0.46359  0.80849  0.81110  1.0000
  C   C98       1.0  0.38559  0.74103  0.81081  1.0000
  H   H169      1.0  0.41161  0.82375  0.86296  1.0000
  H   H170      1.0  0.36025  0.71303  0.83452  1.0000
  H   H171      1.0  0.37826  0.70164  0.68553  1.0000
  H   H172      1.0  0.46777  0.82623  0.88563  1.0000
  C   C99       1.0  0.24349  0.65358  0.73845  1.0000
  C   C100      1.0  0.33314  0.67479  0.76134  1.0000
  H   H173      1.0  0.31283  0.72111  0.72140  1.0000
  H   H174      1.0  0.48330  0.65078  0.75806  1.0000
  H   H175      1.0  0.22164  0.53194  0.85592  1.0000
  H   H176      1.0  0.22568  0.62807  0.76547  1.0000
  H   H177      1.0  0.36700  0.60710  0.77062  1.0000
  H   H178      1.0  0.44348  0.71684  0.69677  1.0000
  C   C101      1.0  0.40510  0.63819  0.76021  1.0000
  H   H179      1.0  0.44671  0.61612  0.80320  1.0000
  H   H180      1.0  0.47546  0.80511  0.67150  1.0000
  H   H181      1.0  0.21797  0.51219  0.90893  1.0000
  H   H182      1.0  0.46024  0.93690  0.97413  1.0000
  C   C102      1.0  0.49053  0.92655  0.97873  1.0000
  H   H183      1.0  0.47183  0.88450  0.97897  1.0000
  H   H184      1.0  0.46928  0.57595  0.99799  1.0000
  H   H185      1.0  0.16014  0.49982  0.88137  1.0000
  C   C103      1.0  0.19795  0.50175  0.87861  1.0000
  H   H186      1.0  0.49923  0.53939  0.91076  1.0000
  H   H187      1.0  0.61769  0.48853  0.08274  1.0000
  S   S25       1.0  0.80185  0.45005  0.14439  1.0000
  C   C104      1.0  0.90546  0.47311  0.26987  1.0000
  H   H188      1.0  0.86575  0.46680  0.27033  1.0000
  H   H189      1.0  0.99345  0.48414  0.08622  1.0000
  H   H190      1.0  0.67222  0.19059  0.05054  1.0000
  H   H191      1.0  0.52412  0.20126  0.32802  1.0000
  H   H192      1.0  0.68633  0.38371  0.32910  1.0000
  H   H193      1.0  0.62755  0.18111  0.00909  1.0000
  Fe  Fe13      1.0  0.77056  0.48808  0.18734  1.0000
  C   C105      1.0  0.77749  0.41512  0.09773  1.0000
  C   C106      1.0  0.80632  0.39658  0.07769  1.0000
  C   C107      1.0  0.78864  0.36838  0.04081  1.0000
  C   C108      1.0  0.74174  0.35832  0.02346  1.0000
  C   C109      1.0  0.71299  0.37704  0.04338  1.0000
  C   C110      1.0  0.73069  0.40529  0.08027  1.0000
  H   H194      1.0  0.84248  0.40381  0.09091  1.0000
  H   H195      1.0  0.81119  0.35425  0.02593  1.0000
  H   H196      1.0  0.56952  0.14143  0.28708  1.0000
  N   N6        1.0  0.56862  0.03314  0.05960  1.0000
  H   H197      1.0  0.66880  0.10953  0.03191  1.0000
  C   C111      1.0  0.59015  0.08938  0.05229  1.0000
  S   S26       1.0  0.63446  0.43963  0.30408  1.0000
  H   H198      1.0  0.63499  0.02420  0.04920  1.0000
  H   H199      1.0  0.70807  0.41923  0.09529  1.0000
  H   H200      1.0  0.54339  0.03742  0.12104  1.0000
  H   H201      1.0  0.90382  0.45625  0.20544  1.0000
  H   H202      1.0  0.60202  0.11017  0.08223  1.0000
  C   C112      1.0  0.63672  0.11547  0.02220  1.0000
  C   C113      1.0  0.92804  0.48824  0.22653  1.0000
  C   C114      1.0  0.54826  0.00656  0.01890  1.0000
  H   H203      1.0  0.90416  0.43738  0.27942  1.0000
  C   C115      1.0  0.56832  0.17659  0.29387  1.0000
  C   C116      1.0  0.61211  0.02589  0.07548  1.0000
  H   H204      1.0  0.93637  0.48192  0.06518  1.0000
  H   H205      1.0  0.60592  0.20556  0.30694  1.0000
  H   H206      1.0  0.66999  0.01022  0.13827  1.0000
  Fe  Fe14      1.0  0.70394  0.48356  0.26150  1.0000
  H   H207      1.0  0.63964  0.05939  0.09406  1.0000
  C   C117      1.0  0.65771  0.17275  0.01991  1.0000
  H   H208      1.0  0.52350  0.01968  0.00395  1.0000
  C   C118      1.0  0.52474  0.16539  0.32396  1.0000
  H   H209      1.0  0.56206  0.19166  0.26442  1.0000
  H   H210      1.0  0.56035  0.09687  0.03907  1.0000
  C   C119      1.0  0.52685  0.01617  0.09179  1.0000
  H   H211      1.0  0.67666  0.36948  0.03031  1.0000
  H   H212      1.0  0.96716  0.49302  0.22698  1.0000
  S   S27       1.0  0.77308  0.47434  0.25559  1.0000
  S   S28       1.0  0.69664  0.49046  0.19224  1.0000
  H   H213      1.0  0.73047  0.01653  0.02241  1.0000
  H   H214      1.0  0.96358  0.49751  0.15262  1.0000
  H   H215      1.0  0.54184  0.11551  0.51818  1.0000
  Fe  Fe15      1.0  0.54983  0.27743  0.51332  1.0000
  S   S29       1.0  0.52223  0.19941  0.54020  1.0000
  H   H216      1.0  0.54359  0.11617  0.35980  1.0000
  S   S30       1.0  0.61020  0.30244  0.46214  1.0000
  C   C120      1.0  0.78588  0.45615  0.37768  1.0000
  C   C121      1.0  0.62822  0.40111  0.34765  1.0000
  C   C122      1.0  0.65839  0.37827  0.35252  1.0000
  C   C123      1.0  0.65179  0.34759  0.38742  1.0000
  C   C124      1.0  0.61515  0.33949  0.41790  1.0000
  C   C125      1.0  0.58457  0.36187  0.41282  1.0000
  C   C126      1.0  0.59098  0.39232  0.37782  1.0000
  H   H217      1.0  0.58864  0.10035  0.49892  1.0000
  H   H218      1.0  0.67541  0.33018  0.39089  1.0000
  H   H219      1.0  0.59785  0.16299  0.49039  1.0000
  H   H220      1.0  0.56712  0.40945  0.37420  1.0000
  H   H221      1.0  0.55627  0.35609  0.43602  1.0000
  S   S31       1.0  0.55891  0.31383  0.57581  1.0000
  H   H222      1.0  0.56877  0.17837  0.37927  1.0000
  C   C127      1.0  0.53881  0.10353  0.45173  1.0000
  Fe  Fe16      1.0  0.52463  0.23461  0.60195  1.0000
  H   H223      1.0  0.50980  0.06283  0.45635  1.0000
  C   C128      1.0  0.56861  0.12196  0.49226  1.0000
  H   H224      1.0  0.54132  0.17513  0.44468  1.0000
  H   H225      1.0  0.56611  0.10676  0.42729  1.0000
  H   H226      1.0  0.75674  0.42275  0.39515  1.0000
  S   S32       1.0  0.54405  0.20533  0.66075  1.0000
  H   H227      1.0  0.84355  0.43430  0.39039  1.0000
  C   C129      1.0  0.82701  0.44404  0.36351  1.0000
  H   H228      1.0  0.52749  0.23031  0.39266  1.0000
  C   C130      1.0  0.51207  0.13436  0.44008  1.0000
  H   H229      1.0  0.96892  0.38140  0.63061  1.0000
  C   C131      1.0  0.71186  0.48368  0.48864  1.0000
  H   H230      1.0  0.68110  0.40687  0.51357  1.0000
  C   C132      1.0  0.73464  0.47293  0.44950  1.0000
  H   H231      1.0  0.75282  0.45101  0.46114  1.0000
  C   C133      1.0  0.66817  0.43466  0.50704  1.0000
  H   H232      1.0  0.85830  0.47712  0.34703  1.0000
  H   H233      1.0  0.76770  0.46127  0.34960  1.0000
  H   H234      1.0  0.63502  0.41727  0.48547  1.0000
  H   H235      1.0  0.70191  0.44577  0.42985  1.0000
  H   H236      1.0  0.65487  0.44299  0.53640  1.0000
  C   C134      1.0  0.99666  0.40280  0.65566  1.0000
  H   H237      1.0  0.63964  0.30420  0.66217  1.0000
  H   H238      1.0  0.72203  0.49530  0.37079  1.0000
  C   C135      1.0  0.53317  0.14588  0.36611  1.0000
  H   H239      1.0  0.80968  0.41120  0.34211  1.0000
  Fe  Fe17      1.0  0.75395  0.28746  0.93687  1.0000
  S   S33       1.0  0.79477  0.24369  0.95084  1.0000
  Fe  Fe18      1.0  0.75187  0.26841  0.84260  1.0000
  S   S34       1.0  0.79263  0.22348  0.84950  1.0000
  S   S35       1.0  0.73727  0.29983  0.78284  1.0000
  Fe  Fe19      1.0  0.74037  0.18584  0.90483  1.0000
  S   S36       1.0  0.68448  0.09982  0.91116  1.0000
  Fe  Fe20      1.0  0.84435  0.28401  0.89461  1.0000
  S   S37       1.0  0.93282  0.32944  0.89578  1.0000
  S   S38       1.0  0.69690  0.22756  0.89414  1.0000
  S   S39       1.0  0.80664  0.33092  0.88457  1.0000
  C   C136      1.0  0.60402  0.33800  0.89265  1.0000
  C   C137      1.0  0.97574  0.34946  0.85294  1.0000
  C   C138      1.0  0.96432  0.32073  0.81687  1.0000
  H   H240      1.0  0.56307  0.37244  0.95304  1.0000
  H   H241      1.0  0.92794  0.28570  0.81431  1.0000
  H   H242      1.0  0.78903  0.23674  0.75514  1.0000
  C   C139      1.0  0.68426  0.27198  0.74825  1.0000
  C   C140      1.0  0.64345  0.22246  0.75356  1.0000
  C   C141      1.0  0.60121  0.20267  0.72621  1.0000
  C   C142      1.0  0.59939  0.23190  0.69306  1.0000
  C   C143      1.0  0.64057  0.28128  0.68746  1.0000
  C   C144      1.0  0.68273  0.30117  0.71495  1.0000
  H   H243      1.0  0.64435  0.19940  0.77874  1.0000
  H   H244      1.0  0.56964  0.16439  0.73075  1.0000
  H   H245      1.0  0.84694  0.32711  0.77626  1.0000
  H   H246      1.0  0.71413  0.33951  0.71052  1.0000
  H   H247      1.0  0.58473  0.27389  0.77428  1.0000
  C   C145      1.0  0.67662  0.04832  0.94307  1.0000
  C   C146      1.0  0.56174  0.17948  0.86409  1.0000
  C   C147      1.0  0.67034  0.36523  0.83731  1.0000
  C   C148      1.0  0.85406  0.40453  0.73236  1.0000
  C   C149      1.0  0.71382  0.37705  0.86890  1.0000
  C   C150      1.0  0.58474  0.31025  0.77490  1.0000
  C   C151      1.0  0.76605  0.41724  0.85190  1.0000
  H   H248      1.0  0.67197  0.40149  0.82874  1.0000
  H   H249      1.0  0.68105  0.35279  0.80857  1.0000
  H   H250      1.0  0.63297  0.26893  0.82639  1.0000
  H   H251      1.0  0.53873  0.29971  0.83006  1.0000
  H   H252      1.0  0.92384  0.44793  0.87740  1.0000
  H   H253      1.0  0.71575  0.34233  0.87583  1.0000
  C   C152      1.0  0.92744  0.40515  0.69899  1.0000
  H   H254      1.0  0.99162  0.31331  0.75710  1.0000
  C   C153      1.0  0.57896  0.32523  0.81951  1.0000
  H   H255      1.0  0.79634  0.42579  0.87538  1.0000
  H   H256      1.0  0.86266  0.30359  0.68648  1.0000
  H   H257      1.0  0.76595  0.45291  0.84462  1.0000
  H   H258      1.0  0.63122  0.39938  0.96298  1.0000
  H   H259      1.0  0.90214  0.32706  0.75820  1.0000
  H   H260      1.0  0.53642  0.22267  0.82904  1.0000
  C   C154      1.0  0.93195  0.42254  0.77319  1.0000
  C   C155      1.0  0.61401  0.27509  0.85343  1.0000
  N   N7        1.0  0.89652  0.39220  0.73835  1.0000
  H   H261      1.0  0.70776  0.39173  0.89836  1.0000
  H   H262      1.0  0.63640  0.27436  0.88057  1.0000
  H   H263      1.0  0.60657  0.43943  0.94539  1.0000
  H   H264      1.0  0.77563  0.40319  0.82360  1.0000
  N   N8        1.0  0.61679  0.32596  0.85065  1.0000
  C   C156      1.0  0.61066  0.39167  0.89764  1.0000
  H   H265      1.0  0.79594  0.45076  0.74805  1.0000
  H   H266      1.0  0.84616  0.23571  0.73872  1.0000
  H   H267      1.0  0.62714  0.33266  0.91716  1.0000
  H   H268      1.0  0.87070  0.41892  0.81399  1.0000
  H   H269      1.0  0.56338  0.31061  0.90077  1.0000
  H   H270      1.0  0.58309  0.17404  0.83854  1.0000
  H   H271      1.0  0.53822  0.23180  0.88397  1.0000
  H   H272      1.0  0.58217  0.39557  0.87838  1.0000
  C   C157      1.0  0.87082  0.46167  0.73003  1.0000
  H   H273      1.0  0.90170  0.38800  0.67182  1.0000
  C   C158      1.0  0.83921  0.29910  0.71425  1.0000
  H   H274      1.0  0.58280  0.36344  0.81687  1.0000
  S   S40       1.0  0.71722  0.32251  0.97721  1.0000
  C   C159      1.0  0.71133  0.05402  0.97440  1.0000
  H   H275      1.0  0.58087  0.18101  0.89391  1.0000
  H   H276      1.0  0.64971  0.42203  0.88870  1.0000
  C   C160      1.0  0.60228  0.40113  0.94254  1.0000
  C   C161      1.0  0.87236  0.33652  0.74876  1.0000
  C   C162      1.0  0.82435  0.46858  0.72263  1.0000
  H   H277      1.0  0.79328  0.21803  0.70339  1.0000
  H   H278      1.0  0.95339  0.34865  0.70276  1.0000
  H   H279      1.0  0.54668  0.29477  0.71530  1.0000
  H   H280      1.0  0.62126  0.33999  0.76091  1.0000
  C   C163      1.0  0.81567  0.24409  0.72891  1.0000
  H   H281      1.0  0.97876  0.45539  0.84920  1.0000
  C   C164      1.0  0.96966  0.38993  0.69755  1.0000
  H   H282      1.0  0.53952  0.34017  0.74587  1.0000
  H   H283      1.0  0.89536  0.37812  0.82880  1.0000
  H   H284      1.0  0.52219  0.14620  0.86489  1.0000
  C   C165      1.0  0.54080  0.30433  0.74717  1.0000
  C   C166      1.0  0.90592  0.41596  0.81584  1.0000
  H   H285      1.0  0.82498  0.38729  0.75730  1.0000
  H   H286      1.0  0.95404  0.46360  0.76501  1.0000
  H   H287      1.0  0.74496  0.09080  0.97955  1.0000
  H   H288      1.0  0.88902  0.48121  0.75935  1.0000
  H   H289      1.0  0.94748  0.44680  0.69330  1.0000
  H   H290      1.0  0.96171  0.41151  0.77830  1.0000
  C   C167      1.0  0.55929  0.22802  0.85747  1.0000
  H   H291      1.0  0.99966  0.41086  0.72117  1.0000
  H   H292      1.0  0.95083  0.49444  0.83641  1.0000
  H   H293      1.0  0.99304  0.26853  0.96153  1.0000
  C   C168      1.0  0.94224  0.45602  0.84645  1.0000
  H   H294      1.0  0.89842  0.48083  0.70444  1.0000
  H   H295      1.0  0.83236  0.38688  0.70348  1.0000
  H   H296      1.0  0.80696  0.30509  0.70520  1.0000
  C   C169      1.0  0.70292  0.01176  0.99872  1.0000
  C   C170      1.0  0.00059  0.33647  0.78450  1.0000
  C   C171      1.0  0.63338  0.99990  0.93671  1.0000
  H   H297      1.0  0.80543  0.45116  0.69283  1.0000
  H   H298      1.0  0.62511  0.10054  0.99041  1.0000
  H   H299      1.0  0.58034  0.01755  0.99681  1.0000
  H   H300      1.0  0.69011  0.19011  0.99759  1.0000
  H   H301      1.0  0.50337  0.27306  0.75859  1.0000
  S   S41       1.0  0.82119  0.57261  0.19379  1.0000
  S   S42       1.0  0.75112  0.56796  0.27212  1.0000
  Fe  Fe21      1.0  0.74732  0.57455  0.20278  1.0000
  S   S43       1.0  0.74040  0.63744  0.16832  1.0000
  Fe  Fe22      1.0  0.82074  0.55933  0.26220  1.0000
  S   S44       1.0  0.88696  0.57967  0.30817  1.0000
  Fe  Fe23      1.0  0.54306  0.73565  0.08868  1.0000
  S   S45       1.0  0.55495  0.67860  0.12732  1.0000
  Fe  Fe24      1.0  0.57791  0.83671  0.04201  1.0000
  H   H302      1.0  0.52207  0.86655  0.23025  1.0000
  S   S46       1.0  0.56939  0.81527  0.10960  1.0000
  S   S47       1.0  0.55783  0.75788  0.02101  1.0000
  H   H303      1.0  0.65085  0.55266  0.10174  1.0000
  C   C172      1.0  0.51865  0.94784  0.01965  1.0000
  H   H304      1.0  0.51116  0.97562  0.10009  1.0000
  H   H305      1.0  0.98297  0.62677  0.13409  1.0000
  H   H306      1.0  0.52112  0.79571  0.19023  1.0000
  C   C173      1.0  0.94938  0.68499  0.16956  1.0000
  C   C174      1.0  0.68814  0.64821  0.15779  1.0000
  C   C175      1.0  0.69781  0.69218  0.13567  1.0000
  C   C176      1.0  0.65786  0.70241  0.12626  1.0000
  C   C177      1.0  0.60741  0.66859  0.13878  1.0000
  C   C178      1.0  0.59763  0.62456  0.16082  1.0000
  C   C179      1.0  0.63763  0.61440  0.17028  1.0000
  H   H307      1.0  0.73668  0.71868  0.12587  1.0000
  H   H308      1.0  0.66622  0.73651  0.10943  1.0000
  H   H309      1.0  0.55882  0.59802  0.17066  1.0000
  H   H310      1.0  0.62944  0.58041  0.18723  1.0000
  H   H311      1.0  0.54628  0.93407  0.02382  1.0000
  H   H312      1.0  0.57543  0.51269  0.02803  1.0000
  H   H313      1.0  0.64895  0.60647  0.02701  1.0000
  C   C180      1.0  0.64380  0.71120  0.25450  1.0000
  C   C181      1.0  0.95618  0.60582  0.15986  1.0000
  C   C182      1.0  0.97348  0.67600  0.29655  1.0000
  H   H314      1.0  0.60050  0.67793  0.04968  1.0000
  H   H315      1.0  0.93628  0.63075  0.21719  1.0000
  H   H316      1.0  0.58844  0.88871  0.24424  1.0000
  C   C183      1.0  0.55812  0.86757  0.22081  1.0000
  H   H317      1.0  0.57066  0.88810  0.19084  1.0000
  C   C184      1.0  0.95514  0.52757  0.14235  1.0000
  C   C185      1.0  0.96227  0.64743  0.19035  1.0000
  C   C186      1.0  0.54906  0.81376  0.21577  1.0000
  H   H318      1.0  0.56105  0.52477  0.07951  1.0000
  H   H319      1.0  0.63519  0.94194  0.13381  1.0000
  H   H320      1.0  0.58611  0.81699  0.20657  1.0000
  H   H321      1.0  0.53328  0.73426  0.32318  1.0000
  H   H322      1.0  0.58387  0.73946  0.21501  1.0000
  C   C187      1.0  0.63393  0.52898  0.07373  1.0000
  H   H323      1.0  0.57911  0.98091  0.13256  1.0000
  H   H324      1.0  0.91334  0.50740  0.13448  1.0000
  C   C188      1.0  0.52669  0.58384  0.04380  1.0000
  C   C189      1.0  0.52695  0.78224  0.25590  1.0000
  C   C190      1.0  0.57706  0.73916  0.24893  1.0000
  H   H325      1.0  0.90945  0.66525  0.15737  1.0000
  H   H326      1.0  0.59375  0.70629  0.30340  1.0000
  H   H327      1.0  0.94951  0.68489  0.27732  1.0000
  H   H328      1.0  0.60707  0.77728  0.26009  1.0000
  H   H329      1.0  0.55038  0.80580  0.28243  1.0000
  H   H330      1.0  0.66495  0.53881  0.05074  1.0000
  H   H331      1.0  0.97648  0.70522  0.14381  1.0000
  H   H332      1.0  0.68368  0.69260  0.02799  1.0000
  C   C191      1.0  0.95258  0.62802  0.31503  1.0000
  C   C192      1.0  0.65765  0.69245  0.00340  1.0000
  C   C193      1.0  0.61253  0.59386  0.04434  1.0000
  H   H333      1.0  0.91657  0.58791  0.14660  1.0000
  H   H334      1.0  0.62407  0.61544  0.07383  1.0000
  C   C194      1.0  0.59152  0.53723  0.05560  1.0000
  C   C195      1.0  0.60108  0.66301  0.01853  1.0000
  S   S48       1.0  0.65034  0.91162  0.02463  1.0000
  H   H335      1.0  0.67455  0.74987  0.26336  1.0000
  H   H336      1.0  0.53468  0.59602  0.07664  1.0000
  H   H337      1.0  0.57214  0.94304  0.08796  1.0000
  N   N9        1.0  0.57671  0.60594  0.02015  1.0000
  H   H338      1.0  0.64406  0.70749  0.22044  1.0000
  H   H339      1.0  0.93562  0.56202  0.23800  1.0000
  H   H340      1.0  0.65255  0.68302  0.26866  1.0000
  N   N10       1.0  0.96632  0.56522  0.17672  1.0000
  H   H341      1.0  0.97076  0.57210  0.08504  1.0000
  H   H342      1.0  0.50365  0.67189  0.30329  1.0000
  H   H343      1.0  0.67059  0.76698  0.02134  1.0000
  N   N11       1.0  0.52366  0.73096  0.25701  1.0000
  C   C196      1.0  0.59130  0.70145  0.26932  1.0000
  H   H344      1.0  0.56268  0.66146  0.26253  1.0000
  H   H345      1.0  0.99854  0.52377  0.04284  1.0000
  H   H346      1.0  0.88883  0.52537  0.20113  1.0000
  C   C197      1.0  0.97787  0.50712  0.07226  1.0000
  H   H347      1.0  0.67015  0.98061  0.09024  1.0000
  C   C198      1.0  0.59809  0.97920  0.10372  1.0000
  H   H348      1.0  0.50723  0.54169  0.04457  1.0000
  H   H349      1.0  0.50898  0.64152  0.21104  1.0000
  C   C199      1.0  0.92880  0.53707  0.21114  1.0000
  C   C200      1.0  0.50512  0.70884  0.29961  1.0000
  C   C201      1.0  0.98521  0.54957  0.10149  1.0000
  H   H350      1.0  0.92945  0.50329  0.29238  1.0000
  H   H351      1.0  0.95275  0.71354  0.19250  1.0000
  C   C202      1.0  0.64636  0.97806  0.11725  1.0000
  H   H352      1.0  0.00266  0.66991  0.20099  1.0000
  H   H353      1.0  0.77322  0.55810  0.36802  1.0000
  H   H354      1.0  0.87512  0.60777  0.41442  1.0000
  H   H355      1.0  0.66053  0.57674  0.37904  1.0000
  H   H356      1.0  0.72429  0.57766  0.42714  1.0000
  H   H357      1.0  0.82670  0.62512  0.40479  1.0000
  C   C203      1.0  0.70695  0.54664  0.40426  1.0000
  C   C204      1.0  0.74511  0.52955  0.39005  1.0000
  C   C205      1.0  0.68890  0.56619  0.36804  1.0000
  H   H358      1.0  0.72189  0.60029  0.35399  1.0000
  H   H359      1.0  0.96870  0.58124  0.35564  1.0000
  C   C206      1.0  0.80389  0.56384  0.45117  1.0000
  H   H360      1.0  0.82431  0.55413  0.47519  1.0000
  H   H361      1.0  0.67003  0.53639  0.34417  1.0000
  H   H362      1.0  0.89142  0.64728  0.48390  1.0000
  H   H363      1.0  0.77903  0.57442  0.46866  1.0000
  H   H364      1.0  0.83652  0.53584  0.38315  1.0000
  H   H365      1.0  0.90096  0.69126  0.44278  1.0000
  C   C207      1.0  0.84469  0.61303  0.42893  1.0000
  H   H366      1.0  0.84355  0.66576  0.47383  1.0000
  C   C208      1.0  0.87163  0.65687  0.45941  1.0000
  H   H367      1.0  0.67227  0.51374  0.41780  1.0000
  H   H368      1.0  0.69656  0.50938  0.48214  1.0000
  N   N12       1.0  0.77257  0.51824  0.42398  1.0000
  C   C209      1.0  0.98435  0.61801  0.34090  1.0000
  C   C210      1.0  0.80985  0.50501  0.40419  1.0000
  H   H369      1.0  0.74218  0.50157  0.51269  1.0000
  H   H370      1.0  0.83442  0.50129  0.42830  1.0000
  H   H371      1.0  0.53710  0.54176  0.97913  1.0000
  H   H372      1.0  0.57859  0.67483  0.99895  1.0000
  H   H373      1.0  0.52595  0.61847  0.95061  1.0000
  H   H374      1.0  0.59046  0.64439  0.93291  1.0000
  C   C211      1.0  0.67454  0.74782  0.99359  1.0000
  C   C212      1.0  0.53591  0.57478  0.90382  1.0000
  H   H375      1.0  0.59114  0.92102  0.95612  1.0000
  H   H376      1.0  0.60292  0.58107  0.96740  1.0000
  C   C213      1.0  0.62440  0.95795  0.96162  1.0000
  H   H377      1.0  0.52854  0.59520  0.87854  1.0000
  H   H378      1.0  0.66304  0.67473  0.97541  1.0000
  C   C214      1.0  0.56818  0.58228  0.97778  1.0000
  H   H379      1.0  0.56490  0.56494  0.89298  1.0000
  C   C215      1.0  0.55542  0.60857  0.94202  1.0000
  C   C216      1.0  0.65908  0.96357  0.99290  1.0000
  H   H380      1.0  0.65105  0.75031  0.96806  1.0000
  H   H381      1.0  0.71553  0.76824  0.98394  1.0000
  H   H382      1.0  0.83702  0.50969  0.72146  1.0000
  H   H383      1.0  0.51779  0.94134  0.95237  1.0000
  H   H384      1.0  0.60652  0.99485  0.91233  1.0000
